<?xml version="1.0" encoding="UTF-8"?>

<!-- generated on Tue Jun  9 00:53:03 2015 by SUMO netconvert Version 0.22.0
<?xml version="1.0" encoding="UTF-8"?>

<configuration xmlns:xsi="http://www.w3.org/2001/XMLSchema-instance" xsi:noNamespaceSchemaLocation="http://sumo.dlr.de/xsd/netconvertConfiguration.xsd">

    <input>
        <node-files value="1nodos.nod.xml"/>
        <edge-files value="2edges.edg.xml"/>
        <connection-files value="3conexiones.con.xml"/>
    </input>

    <output>
        <output-file value="4manhh.net.xml"/>
    </output>

    <report>
        <verbose value="true"/>
    </report>

</configuration>
-->

<net version="0.13" xmlns:xsi="http://www.w3.org/2001/XMLSchema-instance" xsi:noNamespaceSchemaLocation="http://sumo.dlr.de/xsd/net_file.xsd">

    <location netOffset="0.00,0.00" convBoundary="0.00,0.00,1500.00,1500.00" origBoundary="0.00,0.00,1500.00,1500.00" projParameter="!"/>

    <edge id=":n1_0" function="internal">
        <lane id=":n1_0_0" index="0" speed="18.06" length="15.89" shape="6.55,1504.95 1.52,1504.23 -2.07,1502.08 -4.23,1498.48 -4.95,1493.45"/>
        <lane id=":n1_0_1" index="1" speed="18.06" length="15.89" shape="6.55,1501.65 2.96,1501.14 0.40,1499.60 -1.14,1497.04 -1.65,1493.45"/>
    </edge>
    <edge id=":n1_2" function="internal">
        <lane id=":n1_2_0" index="0" speed="18.06" length="5.24" shape="4.95,1493.45 5.05,1494.15 5.35,1494.65 5.85,1494.95 6.55,1495.05"/>
        <lane id=":n1_2_1" index="1" speed="18.06" length="5.24" shape="1.65,1493.45 1.96,1495.59 2.88,1497.12 4.41,1498.04 6.55,1498.35"/>
    </edge>
    <edge id=":n10_0" function="internal">
        <lane id=":n10_0_0" index="0" speed="18.06" length="5.00" shape="1495.05,1133.05 1494.86,1131.69 1494.27,1130.72 1493.31,1130.14 1491.95,1129.95"/>
    </edge>
    <edge id=":n10_1" function="internal">
        <lane id=":n10_1_0" index="0" speed="18.06" length="16.10" shape="1495.05,1133.05 1495.05,1128.27 1495.05,1125.00 1495.05,1121.73 1495.05,1116.95"/>
        <lane id=":n10_1_1" index="1" speed="18.06" length="16.10" shape="1498.35,1133.05 1498.35,1128.27 1498.35,1125.00 1498.35,1121.73 1498.35,1116.95"/>
    </edge>
    <edge id=":n10_3" function="internal">
        <lane id=":n10_3_0" index="0" speed="18.06" length="16.10" shape="1504.95,1116.95 1504.95,1121.73 1504.95,1125.00 1504.95,1128.27 1504.95,1133.05"/>
        <lane id=":n10_3_1" index="1" speed="18.06" length="16.10" shape="1501.65,1116.95 1501.65,1121.73 1501.65,1125.00 1501.65,1128.27 1501.65,1133.05"/>
    </edge>
    <edge id=":n10_5" function="internal">
        <lane id=":n10_5_0" index="0" speed="18.06" length="8.84" shape="1501.65,1116.95 1501.04,1121.19 1499.23,1124.22 1498.35,1124.75"/>
    </edge>
    <edge id=":n10_8" function="internal">
        <lane id=":n10_8_0" index="0" speed="18.06" length="6.80" shape="1498.35,1124.75 1496.19,1126.04 1491.95,1126.65"/>
    </edge>
    <edge id=":n10_6" function="internal">
        <lane id=":n10_6_0" index="0" speed="18.06" length="5.00" shape="1491.95,1120.05 1493.31,1119.86 1494.28,1119.27 1494.86,1118.31 1495.05,1116.95"/>
    </edge>
    <edge id=":n10_7" function="internal">
        <lane id=":n10_7_0" index="0" speed="18.06" length="3.13" shape="1491.95,1123.35 1495.05,1123.79"/>
    </edge>
    <edge id=":n10_9" function="internal">
        <lane id=":n10_9_0" index="0" speed="18.06" length="12.51" shape="1495.05,1123.79 1496.19,1123.96 1499.22,1125.77 1501.04,1128.81 1501.65,1133.05"/>
    </edge>
    <edge id=":n11_0" function="internal">
        <lane id=":n11_0_0" index="0" speed="18.06" length="16.10" shape="-4.95,758.05 -4.95,753.27 -4.95,750.00 -4.95,746.73 -4.95,741.95"/>
        <lane id=":n11_0_1" index="1" speed="18.06" length="16.10" shape="-1.65,758.05 -1.65,753.27 -1.65,750.00 -1.65,746.73 -1.65,741.95"/>
    </edge>
    <edge id=":n11_2" function="internal">
        <lane id=":n11_2_0" index="0" speed="18.06" length="8.84" shape="-1.65,758.05 -1.04,753.81 0.78,750.77 1.65,750.25"/>
    </edge>
    <edge id=":n11_8" function="internal">
        <lane id=":n11_8_0" index="0" speed="18.06" length="6.80" shape="1.65,750.25 3.81,748.96 8.05,748.35"/>
    </edge>
    <edge id=":n11_3" function="internal">
        <lane id=":n11_3_0" index="0" speed="18.06" length="5.00" shape="8.05,754.95 6.69,755.14 5.73,755.73 5.14,756.69 4.95,758.05"/>
    </edge>
    <edge id=":n11_4" function="internal">
        <lane id=":n11_4_0" index="0" speed="18.06" length="3.13" shape="8.05,751.65 4.95,751.21"/>
    </edge>
    <edge id=":n11_9" function="internal">
        <lane id=":n11_9_0" index="0" speed="18.06" length="12.51" shape="4.95,751.21 3.81,751.04 0.78,749.22 -1.04,746.19 -1.65,741.95"/>
    </edge>
    <edge id=":n11_5" function="internal">
        <lane id=":n11_5_0" index="0" speed="18.06" length="5.00" shape="4.95,741.95 5.14,743.31 5.72,744.27 6.69,744.86 8.05,745.05"/>
    </edge>
    <edge id=":n11_6" function="internal">
        <lane id=":n11_6_0" index="0" speed="18.06" length="16.10" shape="4.95,741.95 4.95,746.73 4.95,750.00 4.95,753.27 4.95,758.05"/>
        <lane id=":n11_6_1" index="1" speed="18.06" length="16.10" shape="1.65,741.95 1.65,746.73 1.65,750.00 1.65,753.27 1.65,758.05"/>
    </edge>
    <edge id=":n12_0" function="internal">
        <lane id=":n12_0_0" index="0" speed="18.06" length="5.00" shape="370.05,758.05 369.86,756.69 369.28,755.73 368.31,755.14 366.95,754.95"/>
    </edge>
    <edge id=":n12_1" function="internal">
        <lane id=":n12_1_0" index="0" speed="18.06" length="16.10" shape="370.05,758.05 370.05,753.27 370.05,750.00 370.05,746.73 370.05,741.95"/>
        <lane id=":n12_1_1" index="1" speed="18.06" length="16.10" shape="373.35,758.05 373.35,753.27 373.35,750.00 373.35,746.73 373.35,741.95"/>
    </edge>
    <edge id=":n12_3" function="internal">
        <lane id=":n12_3_0" index="0" speed="18.06" length="6.80" shape="373.35,758.05 373.96,753.81 375.25,751.65"/>
    </edge>
    <edge id=":n12_14" function="internal">
        <lane id=":n12_14_0" index="0" speed="18.06" length="8.84" shape="375.25,751.65 375.78,750.77 378.81,748.96 383.05,748.35"/>
    </edge>
    <edge id=":n12_4" function="internal">
        <lane id=":n12_4_0" index="0" speed="18.06" length="5.00" shape="383.05,754.95 381.69,755.14 380.73,755.73 380.14,756.69 379.95,758.05"/>
    </edge>
    <edge id=":n12_5" function="internal">
        <lane id=":n12_5_0" index="0" speed="18.06" length="16.10" shape="383.05,751.65 378.27,751.65 375.00,751.65 371.73,751.65 366.95,751.65"/>
    </edge>
    <edge id=":n12_6" function="internal">
        <lane id=":n12_6_0" index="0" speed="18.06" length="3.13" shape="383.05,751.65 379.95,751.21"/>
    </edge>
    <edge id=":n12_15" function="internal">
        <lane id=":n12_15_0" index="0" speed="18.06" length="12.51" shape="379.95,751.21 378.81,751.04 375.78,749.22 373.96,746.19 373.35,741.95"/>
    </edge>
    <edge id=":n12_7" function="internal">
        <lane id=":n12_7_0" index="0" speed="18.06" length="5.00" shape="379.95,741.95 380.14,743.31 380.72,744.27 381.69,744.86 383.05,745.05"/>
    </edge>
    <edge id=":n12_8" function="internal">
        <lane id=":n12_8_0" index="0" speed="18.06" length="16.10" shape="379.95,741.95 379.95,746.73 379.95,750.00 379.95,753.27 379.95,758.05"/>
        <lane id=":n12_8_1" index="1" speed="18.06" length="16.10" shape="376.65,741.95 376.65,746.73 376.65,750.00 376.65,753.27 376.65,758.05"/>
    </edge>
    <edge id=":n12_10" function="internal">
        <lane id=":n12_10_0" index="0" speed="18.06" length="6.80" shape="376.65,741.95 376.04,746.19 374.75,748.35"/>
    </edge>
    <edge id=":n12_16" function="internal">
        <lane id=":n12_16_0" index="0" speed="18.06" length="8.84" shape="374.75,748.35 374.22,749.23 371.19,751.04 366.95,751.65"/>
    </edge>
    <edge id=":n12_11" function="internal">
        <lane id=":n12_11_0" index="0" speed="18.06" length="5.00" shape="366.95,745.05 368.31,744.86 369.27,744.27 369.86,743.31 370.05,741.95"/>
    </edge>
    <edge id=":n12_12" function="internal">
        <lane id=":n12_12_0" index="0" speed="18.06" length="16.10" shape="366.95,748.35 371.73,748.35 375.00,748.35 378.27,748.35 383.05,748.35"/>
    </edge>
    <edge id=":n12_13" function="internal">
        <lane id=":n12_13_0" index="0" speed="18.06" length="3.13" shape="366.95,748.35 370.05,748.79"/>
    </edge>
    <edge id=":n12_17" function="internal">
        <lane id=":n12_17_0" index="0" speed="18.06" length="12.51" shape="370.05,748.79 371.19,748.96 374.23,750.78 376.04,753.81 376.65,758.05"/>
    </edge>
    <edge id=":n13_0" function="internal">
        <lane id=":n13_0_0" index="0" speed="18.06" length="5.00" shape="745.05,758.05 744.86,756.69 744.27,755.73 743.31,755.14 741.95,754.95"/>
    </edge>
    <edge id=":n13_1" function="internal">
        <lane id=":n13_1_0" index="0" speed="18.06" length="16.10" shape="745.05,758.05 745.05,753.27 745.05,750.00 745.05,746.73 745.05,741.95"/>
        <lane id=":n13_1_1" index="1" speed="18.06" length="16.10" shape="748.35,758.05 748.35,753.27 748.35,750.00 748.35,746.73 748.35,741.95"/>
    </edge>
    <edge id=":n13_3" function="internal">
        <lane id=":n13_3_0" index="0" speed="18.06" length="6.80" shape="748.35,758.05 748.96,753.81 750.25,751.65"/>
    </edge>
    <edge id=":n13_14" function="internal">
        <lane id=":n13_14_0" index="0" speed="18.06" length="8.84" shape="750.25,751.65 750.78,750.77 753.81,748.96 758.05,748.35"/>
    </edge>
    <edge id=":n13_4" function="internal">
        <lane id=":n13_4_0" index="0" speed="18.06" length="5.00" shape="758.05,754.95 756.69,755.14 755.73,755.73 755.14,756.69 754.95,758.05"/>
    </edge>
    <edge id=":n13_5" function="internal">
        <lane id=":n13_5_0" index="0" speed="18.06" length="16.10" shape="758.05,751.65 753.27,751.65 750.00,751.65 746.73,751.65 741.95,751.65"/>
    </edge>
    <edge id=":n13_6" function="internal">
        <lane id=":n13_6_0" index="0" speed="18.06" length="3.13" shape="758.05,751.65 754.95,751.21"/>
    </edge>
    <edge id=":n13_15" function="internal">
        <lane id=":n13_15_0" index="0" speed="18.06" length="12.51" shape="754.95,751.21 753.81,751.04 750.77,749.22 748.96,746.19 748.35,741.95"/>
    </edge>
    <edge id=":n13_7" function="internal">
        <lane id=":n13_7_0" index="0" speed="18.06" length="5.00" shape="754.95,741.95 755.14,743.31 755.73,744.27 756.69,744.86 758.05,745.05"/>
    </edge>
    <edge id=":n13_8" function="internal">
        <lane id=":n13_8_0" index="0" speed="18.06" length="16.10" shape="754.95,741.95 754.95,746.73 754.95,750.00 754.95,753.27 754.95,758.05"/>
        <lane id=":n13_8_1" index="1" speed="18.06" length="16.10" shape="751.65,741.95 751.65,746.73 751.65,750.00 751.65,753.27 751.65,758.05"/>
    </edge>
    <edge id=":n13_10" function="internal">
        <lane id=":n13_10_0" index="0" speed="18.06" length="6.80" shape="751.65,741.95 751.04,746.19 749.75,748.35"/>
    </edge>
    <edge id=":n13_16" function="internal">
        <lane id=":n13_16_0" index="0" speed="18.06" length="8.84" shape="749.75,748.35 749.22,749.22 746.19,751.04 741.95,751.65"/>
    </edge>
    <edge id=":n13_11" function="internal">
        <lane id=":n13_11_0" index="0" speed="18.06" length="5.00" shape="741.95,745.05 743.31,744.86 744.27,744.27 744.86,743.31 745.05,741.95"/>
    </edge>
    <edge id=":n13_12" function="internal">
        <lane id=":n13_12_0" index="0" speed="18.06" length="16.10" shape="741.95,748.35 746.73,748.35 750.00,748.35 753.27,748.35 758.05,748.35"/>
    </edge>
    <edge id=":n13_13" function="internal">
        <lane id=":n13_13_0" index="0" speed="18.06" length="3.13" shape="741.95,748.35 745.05,748.79"/>
    </edge>
    <edge id=":n13_17" function="internal">
        <lane id=":n13_17_0" index="0" speed="18.06" length="12.51" shape="745.05,748.79 746.19,748.96 749.23,750.78 751.04,753.81 751.65,758.05"/>
    </edge>
    <edge id=":n14_0" function="internal">
        <lane id=":n14_0_0" index="0" speed="18.06" length="5.00" shape="1120.05,758.05 1119.86,756.69 1119.27,755.73 1118.31,755.14 1116.95,754.95"/>
    </edge>
    <edge id=":n14_1" function="internal">
        <lane id=":n14_1_0" index="0" speed="18.06" length="16.10" shape="1120.05,758.05 1120.05,753.27 1120.05,750.00 1120.05,746.73 1120.05,741.95"/>
        <lane id=":n14_1_1" index="1" speed="18.06" length="16.10" shape="1123.35,758.05 1123.35,753.27 1123.35,750.00 1123.35,746.73 1123.35,741.95"/>
    </edge>
    <edge id=":n14_3" function="internal">
        <lane id=":n14_3_0" index="0" speed="18.06" length="6.80" shape="1123.35,758.05 1123.96,753.81 1125.25,751.65"/>
    </edge>
    <edge id=":n14_14" function="internal">
        <lane id=":n14_14_0" index="0" speed="18.06" length="8.84" shape="1125.25,751.65 1125.77,750.77 1128.81,748.96 1133.05,748.35"/>
    </edge>
    <edge id=":n14_4" function="internal">
        <lane id=":n14_4_0" index="0" speed="18.06" length="5.00" shape="1133.05,754.95 1131.69,755.14 1130.72,755.73 1130.14,756.69 1129.95,758.05"/>
    </edge>
    <edge id=":n14_5" function="internal">
        <lane id=":n14_5_0" index="0" speed="18.06" length="16.10" shape="1133.05,751.65 1128.27,751.65 1125.00,751.65 1121.73,751.65 1116.95,751.65"/>
    </edge>
    <edge id=":n14_6" function="internal">
        <lane id=":n14_6_0" index="0" speed="18.06" length="3.13" shape="1133.05,751.65 1129.95,751.21"/>
    </edge>
    <edge id=":n14_15" function="internal">
        <lane id=":n14_15_0" index="0" speed="18.06" length="12.51" shape="1129.95,751.21 1128.81,751.04 1125.78,749.22 1123.96,746.19 1123.35,741.95"/>
    </edge>
    <edge id=":n14_7" function="internal">
        <lane id=":n14_7_0" index="0" speed="18.06" length="5.00" shape="1129.95,741.95 1130.14,743.31 1130.73,744.27 1131.69,744.86 1133.05,745.05"/>
    </edge>
    <edge id=":n14_8" function="internal">
        <lane id=":n14_8_0" index="0" speed="18.06" length="16.10" shape="1129.95,741.95 1129.95,746.73 1129.95,750.00 1129.95,753.27 1129.95,758.05"/>
        <lane id=":n14_8_1" index="1" speed="18.06" length="16.10" shape="1126.65,741.95 1126.65,746.73 1126.65,750.00 1126.65,753.27 1126.65,758.05"/>
    </edge>
    <edge id=":n14_10" function="internal">
        <lane id=":n14_10_0" index="0" speed="18.06" length="6.80" shape="1126.65,741.95 1126.04,746.19 1124.75,748.35"/>
    </edge>
    <edge id=":n14_16" function="internal">
        <lane id=":n14_16_0" index="0" speed="18.06" length="8.84" shape="1124.75,748.35 1124.23,749.23 1121.19,751.04 1116.95,751.65"/>
    </edge>
    <edge id=":n14_11" function="internal">
        <lane id=":n14_11_0" index="0" speed="18.06" length="5.00" shape="1116.95,745.05 1118.31,744.86 1119.28,744.27 1119.86,743.31 1120.05,741.95"/>
    </edge>
    <edge id=":n14_12" function="internal">
        <lane id=":n14_12_0" index="0" speed="18.06" length="16.10" shape="1116.95,748.35 1121.73,748.35 1125.00,748.35 1128.27,748.35 1133.05,748.35"/>
    </edge>
    <edge id=":n14_13" function="internal">
        <lane id=":n14_13_0" index="0" speed="18.06" length="3.13" shape="1116.95,748.35 1120.05,748.79"/>
    </edge>
    <edge id=":n14_17" function="internal">
        <lane id=":n14_17_0" index="0" speed="18.06" length="12.51" shape="1120.05,748.79 1121.19,748.96 1124.22,750.78 1126.04,753.81 1126.65,758.05"/>
    </edge>
    <edge id=":n15_0" function="internal">
        <lane id=":n15_0_0" index="0" speed="18.06" length="5.00" shape="1495.05,758.05 1494.86,756.69 1494.27,755.73 1493.31,755.14 1491.95,754.95"/>
    </edge>
    <edge id=":n15_1" function="internal">
        <lane id=":n15_1_0" index="0" speed="18.06" length="16.10" shape="1495.05,758.05 1495.05,753.27 1495.05,750.00 1495.05,746.73 1495.05,741.95"/>
        <lane id=":n15_1_1" index="1" speed="18.06" length="16.10" shape="1498.35,758.05 1498.35,753.27 1498.35,750.00 1498.35,746.73 1498.35,741.95"/>
    </edge>
    <edge id=":n15_3" function="internal">
        <lane id=":n15_3_0" index="0" speed="18.06" length="16.10" shape="1504.95,741.95 1504.95,746.73 1504.95,750.00 1504.95,753.27 1504.95,758.05"/>
        <lane id=":n15_3_1" index="1" speed="18.06" length="16.10" shape="1501.65,741.95 1501.65,746.73 1501.65,750.00 1501.65,753.27 1501.65,758.05"/>
    </edge>
    <edge id=":n15_5" function="internal">
        <lane id=":n15_5_0" index="0" speed="18.06" length="8.84" shape="1501.65,741.95 1501.04,746.19 1499.23,749.23 1498.35,749.75"/>
    </edge>
    <edge id=":n15_8" function="internal">
        <lane id=":n15_8_0" index="0" speed="18.06" length="6.80" shape="1498.35,749.75 1496.19,751.04 1491.95,751.65"/>
    </edge>
    <edge id=":n15_6" function="internal">
        <lane id=":n15_6_0" index="0" speed="18.06" length="5.00" shape="1491.95,745.05 1493.31,744.86 1494.28,744.27 1494.86,743.31 1495.05,741.95"/>
    </edge>
    <edge id=":n15_7" function="internal">
        <lane id=":n15_7_0" index="0" speed="18.06" length="3.13" shape="1491.95,748.35 1495.05,748.79"/>
    </edge>
    <edge id=":n15_9" function="internal">
        <lane id=":n15_9_0" index="0" speed="18.06" length="12.51" shape="1495.05,748.79 1496.19,748.96 1499.22,750.78 1501.04,753.81 1501.65,758.05"/>
    </edge>
    <edge id=":n16_0" function="internal">
        <lane id=":n16_0_0" index="0" speed="18.06" length="16.10" shape="-4.95,383.05 -4.95,378.27 -4.95,375.00 -4.95,371.73 -4.95,366.95"/>
        <lane id=":n16_0_1" index="1" speed="18.06" length="16.10" shape="-1.65,383.05 -1.65,378.27 -1.65,375.00 -1.65,371.73 -1.65,366.95"/>
    </edge>
    <edge id=":n16_2" function="internal">
        <lane id=":n16_2_0" index="0" speed="18.06" length="8.84" shape="-1.65,383.05 -1.04,378.81 0.78,375.78 1.65,375.25"/>
    </edge>
    <edge id=":n16_8" function="internal">
        <lane id=":n16_8_0" index="0" speed="18.06" length="6.80" shape="1.65,375.25 3.81,373.96 8.05,373.35"/>
    </edge>
    <edge id=":n16_3" function="internal">
        <lane id=":n16_3_0" index="0" speed="18.06" length="5.00" shape="8.05,379.95 6.69,380.14 5.73,380.72 5.14,381.69 4.95,383.05"/>
    </edge>
    <edge id=":n16_4" function="internal">
        <lane id=":n16_4_0" index="0" speed="18.06" length="3.13" shape="8.05,376.65 4.95,376.21"/>
    </edge>
    <edge id=":n16_9" function="internal">
        <lane id=":n16_9_0" index="0" speed="18.06" length="12.51" shape="4.95,376.21 3.81,376.04 0.78,374.22 -1.04,371.19 -1.65,366.95"/>
    </edge>
    <edge id=":n16_5" function="internal">
        <lane id=":n16_5_0" index="0" speed="18.06" length="5.00" shape="4.95,366.95 5.14,368.31 5.72,369.27 6.69,369.86 8.05,370.05"/>
    </edge>
    <edge id=":n16_6" function="internal">
        <lane id=":n16_6_0" index="0" speed="18.06" length="16.10" shape="4.95,366.95 4.95,371.73 4.95,375.00 4.95,378.27 4.95,383.05"/>
        <lane id=":n16_6_1" index="1" speed="18.06" length="16.10" shape="1.65,366.95 1.65,371.73 1.65,375.00 1.65,378.27 1.65,383.05"/>
    </edge>
    <edge id=":n17_0" function="internal">
        <lane id=":n17_0_0" index="0" speed="18.06" length="5.00" shape="370.05,383.05 369.86,381.69 369.28,380.73 368.31,380.14 366.95,379.95"/>
    </edge>
    <edge id=":n17_1" function="internal">
        <lane id=":n17_1_0" index="0" speed="18.06" length="16.10" shape="370.05,383.05 370.05,378.27 370.05,375.00 370.05,371.73 370.05,366.95"/>
        <lane id=":n17_1_1" index="1" speed="18.06" length="16.10" shape="373.35,383.05 373.35,378.27 373.35,375.00 373.35,371.73 373.35,366.95"/>
    </edge>
    <edge id=":n17_3" function="internal">
        <lane id=":n17_3_0" index="0" speed="18.06" length="6.80" shape="373.35,383.05 373.96,378.81 375.25,376.65"/>
    </edge>
    <edge id=":n17_14" function="internal">
        <lane id=":n17_14_0" index="0" speed="18.06" length="8.84" shape="375.25,376.65 375.78,375.78 378.81,373.96 383.05,373.35"/>
    </edge>
    <edge id=":n17_4" function="internal">
        <lane id=":n17_4_0" index="0" speed="18.06" length="5.00" shape="383.05,379.95 381.69,380.14 380.73,380.72 380.14,381.69 379.95,383.05"/>
    </edge>
    <edge id=":n17_5" function="internal">
        <lane id=":n17_5_0" index="0" speed="18.06" length="16.10" shape="383.05,376.65 378.27,376.65 375.00,376.65 371.73,376.65 366.95,376.65"/>
    </edge>
    <edge id=":n17_6" function="internal">
        <lane id=":n17_6_0" index="0" speed="18.06" length="3.13" shape="383.05,376.65 379.95,376.21"/>
    </edge>
    <edge id=":n17_15" function="internal">
        <lane id=":n17_15_0" index="0" speed="18.06" length="12.51" shape="379.95,376.21 378.81,376.04 375.78,374.22 373.96,371.19 373.35,366.95"/>
    </edge>
    <edge id=":n17_7" function="internal">
        <lane id=":n17_7_0" index="0" speed="18.06" length="5.00" shape="379.95,366.95 380.14,368.31 380.72,369.27 381.69,369.86 383.05,370.05"/>
    </edge>
    <edge id=":n17_8" function="internal">
        <lane id=":n17_8_0" index="0" speed="18.06" length="16.10" shape="379.95,366.95 379.95,371.73 379.95,375.00 379.95,378.27 379.95,383.05"/>
        <lane id=":n17_8_1" index="1" speed="18.06" length="16.10" shape="376.65,366.95 376.65,371.73 376.65,375.00 376.65,378.27 376.65,383.05"/>
    </edge>
    <edge id=":n17_10" function="internal">
        <lane id=":n17_10_0" index="0" speed="18.06" length="6.80" shape="376.65,366.95 376.04,371.19 374.75,373.35"/>
    </edge>
    <edge id=":n17_16" function="internal">
        <lane id=":n17_16_0" index="0" speed="18.06" length="8.84" shape="374.75,373.35 374.22,374.23 371.19,376.04 366.95,376.65"/>
    </edge>
    <edge id=":n17_11" function="internal">
        <lane id=":n17_11_0" index="0" speed="18.06" length="5.00" shape="366.95,370.05 368.31,369.86 369.27,369.28 369.86,368.31 370.05,366.95"/>
    </edge>
    <edge id=":n17_12" function="internal">
        <lane id=":n17_12_0" index="0" speed="18.06" length="16.10" shape="366.95,373.35 371.73,373.35 375.00,373.35 378.27,373.35 383.05,373.35"/>
    </edge>
    <edge id=":n17_13" function="internal">
        <lane id=":n17_13_0" index="0" speed="18.06" length="3.13" shape="366.95,373.35 370.05,373.79"/>
    </edge>
    <edge id=":n17_17" function="internal">
        <lane id=":n17_17_0" index="0" speed="18.06" length="12.51" shape="370.05,373.79 371.19,373.96 374.22,375.78 376.04,378.81 376.65,383.05"/>
    </edge>
    <edge id=":n18_0" function="internal">
        <lane id=":n18_0_0" index="0" speed="18.06" length="5.00" shape="745.05,383.05 744.86,381.69 744.27,380.73 743.31,380.14 741.95,379.95"/>
    </edge>
    <edge id=":n18_1" function="internal">
        <lane id=":n18_1_0" index="0" speed="18.06" length="16.10" shape="745.05,383.05 745.05,378.27 745.05,375.00 745.05,371.73 745.05,366.95"/>
        <lane id=":n18_1_1" index="1" speed="18.06" length="16.10" shape="748.35,383.05 748.35,378.27 748.35,375.00 748.35,371.73 748.35,366.95"/>
    </edge>
    <edge id=":n18_3" function="internal">
        <lane id=":n18_3_0" index="0" speed="18.06" length="6.80" shape="748.35,383.05 748.96,378.81 750.25,376.65"/>
    </edge>
    <edge id=":n18_14" function="internal">
        <lane id=":n18_14_0" index="0" speed="18.06" length="8.84" shape="750.25,376.65 750.78,375.78 753.81,373.96 758.05,373.35"/>
    </edge>
    <edge id=":n18_4" function="internal">
        <lane id=":n18_4_0" index="0" speed="18.06" length="5.00" shape="758.05,379.95 756.69,380.14 755.73,380.72 755.14,381.69 754.95,383.05"/>
    </edge>
    <edge id=":n18_5" function="internal">
        <lane id=":n18_5_0" index="0" speed="18.06" length="16.10" shape="758.05,376.65 753.27,376.65 750.00,376.65 746.73,376.65 741.95,376.65"/>
    </edge>
    <edge id=":n18_6" function="internal">
        <lane id=":n18_6_0" index="0" speed="18.06" length="3.13" shape="758.05,376.65 754.95,376.21"/>
    </edge>
    <edge id=":n18_15" function="internal">
        <lane id=":n18_15_0" index="0" speed="18.06" length="12.51" shape="754.95,376.21 753.81,376.04 750.77,374.22 748.96,371.19 748.35,366.95"/>
    </edge>
    <edge id=":n18_7" function="internal">
        <lane id=":n18_7_0" index="0" speed="18.06" length="5.00" shape="754.95,366.95 755.14,368.31 755.73,369.27 756.69,369.86 758.05,370.05"/>
    </edge>
    <edge id=":n18_8" function="internal">
        <lane id=":n18_8_0" index="0" speed="18.06" length="16.10" shape="754.95,366.95 754.95,371.73 754.95,375.00 754.95,378.27 754.95,383.05"/>
        <lane id=":n18_8_1" index="1" speed="18.06" length="16.10" shape="751.65,366.95 751.65,371.73 751.65,375.00 751.65,378.27 751.65,383.05"/>
    </edge>
    <edge id=":n18_10" function="internal">
        <lane id=":n18_10_0" index="0" speed="18.06" length="6.80" shape="751.65,366.95 751.04,371.19 749.75,373.35"/>
    </edge>
    <edge id=":n18_16" function="internal">
        <lane id=":n18_16_0" index="0" speed="18.06" length="8.84" shape="749.75,373.35 749.22,374.22 746.19,376.04 741.95,376.65"/>
    </edge>
    <edge id=":n18_11" function="internal">
        <lane id=":n18_11_0" index="0" speed="18.06" length="5.00" shape="741.95,370.05 743.31,369.86 744.27,369.28 744.86,368.31 745.05,366.95"/>
    </edge>
    <edge id=":n18_12" function="internal">
        <lane id=":n18_12_0" index="0" speed="18.06" length="16.10" shape="741.95,373.35 746.73,373.35 750.00,373.35 753.27,373.35 758.05,373.35"/>
    </edge>
    <edge id=":n18_13" function="internal">
        <lane id=":n18_13_0" index="0" speed="18.06" length="3.13" shape="741.95,373.35 745.05,373.79"/>
    </edge>
    <edge id=":n18_17" function="internal">
        <lane id=":n18_17_0" index="0" speed="18.06" length="12.51" shape="745.05,373.79 746.19,373.96 749.22,375.78 751.04,378.81 751.65,383.05"/>
    </edge>
    <edge id=":n19_0" function="internal">
        <lane id=":n19_0_0" index="0" speed="18.06" length="5.00" shape="1120.05,383.05 1119.86,381.69 1119.27,380.73 1118.31,380.14 1116.95,379.95"/>
    </edge>
    <edge id=":n19_1" function="internal">
        <lane id=":n19_1_0" index="0" speed="18.06" length="16.10" shape="1120.05,383.05 1120.05,378.27 1120.05,375.00 1120.05,371.73 1120.05,366.95"/>
        <lane id=":n19_1_1" index="1" speed="18.06" length="16.10" shape="1123.35,383.05 1123.35,378.27 1123.35,375.00 1123.35,371.73 1123.35,366.95"/>
    </edge>
    <edge id=":n19_3" function="internal">
        <lane id=":n19_3_0" index="0" speed="18.06" length="6.80" shape="1123.35,383.05 1123.96,378.81 1125.25,376.65"/>
    </edge>
    <edge id=":n19_14" function="internal">
        <lane id=":n19_14_0" index="0" speed="18.06" length="8.84" shape="1125.25,376.65 1125.77,375.77 1128.81,373.96 1133.05,373.35"/>
    </edge>
    <edge id=":n19_4" function="internal">
        <lane id=":n19_4_0" index="0" speed="18.06" length="5.00" shape="1133.05,379.95 1131.69,380.14 1130.72,380.72 1130.14,381.69 1129.95,383.05"/>
    </edge>
    <edge id=":n19_5" function="internal">
        <lane id=":n19_5_0" index="0" speed="18.06" length="16.10" shape="1133.05,376.65 1128.27,376.65 1125.00,376.65 1121.73,376.65 1116.95,376.65"/>
    </edge>
    <edge id=":n19_6" function="internal">
        <lane id=":n19_6_0" index="0" speed="18.06" length="3.13" shape="1133.05,376.65 1129.95,376.21"/>
    </edge>
    <edge id=":n19_15" function="internal">
        <lane id=":n19_15_0" index="0" speed="18.06" length="12.51" shape="1129.95,376.21 1128.81,376.04 1125.78,374.22 1123.96,371.19 1123.35,366.95"/>
    </edge>
    <edge id=":n19_7" function="internal">
        <lane id=":n19_7_0" index="0" speed="18.06" length="5.00" shape="1129.95,366.95 1130.14,368.31 1130.73,369.28 1131.69,369.86 1133.05,370.05"/>
    </edge>
    <edge id=":n19_8" function="internal">
        <lane id=":n19_8_0" index="0" speed="18.06" length="16.10" shape="1129.95,366.95 1129.95,371.73 1129.95,375.00 1129.95,378.27 1129.95,383.05"/>
        <lane id=":n19_8_1" index="1" speed="18.06" length="16.10" shape="1126.65,366.95 1126.65,371.73 1126.65,375.00 1126.65,378.27 1126.65,383.05"/>
    </edge>
    <edge id=":n19_10" function="internal">
        <lane id=":n19_10_0" index="0" speed="18.06" length="6.80" shape="1126.65,366.95 1126.04,371.19 1124.75,373.35"/>
    </edge>
    <edge id=":n19_16" function="internal">
        <lane id=":n19_16_0" index="0" speed="18.06" length="8.84" shape="1124.75,373.35 1124.23,374.23 1121.19,376.04 1116.95,376.65"/>
    </edge>
    <edge id=":n19_11" function="internal">
        <lane id=":n19_11_0" index="0" speed="18.06" length="5.00" shape="1116.95,370.05 1118.31,369.86 1119.28,369.28 1119.86,368.31 1120.05,366.95"/>
    </edge>
    <edge id=":n19_12" function="internal">
        <lane id=":n19_12_0" index="0" speed="18.06" length="16.10" shape="1116.95,373.35 1121.73,373.35 1125.00,373.35 1128.27,373.35 1133.05,373.35"/>
    </edge>
    <edge id=":n19_13" function="internal">
        <lane id=":n19_13_0" index="0" speed="18.06" length="3.13" shape="1116.95,373.35 1120.05,373.79"/>
    </edge>
    <edge id=":n19_17" function="internal">
        <lane id=":n19_17_0" index="0" speed="18.06" length="12.51" shape="1120.05,373.79 1121.19,373.96 1124.22,375.78 1126.04,378.81 1126.65,383.05"/>
    </edge>
    <edge id=":n2_0" function="internal">
        <lane id=":n2_0_0" index="0" speed="18.06" length="16.10" shape="383.05,1504.95 378.27,1504.95 375.00,1504.95 371.73,1504.95 366.95,1504.95"/>
        <lane id=":n2_0_1" index="1" speed="18.06" length="16.10" shape="383.05,1501.65 378.27,1501.65 375.00,1501.65 371.73,1501.65 366.95,1501.65"/>
    </edge>
    <edge id=":n2_2" function="internal">
        <lane id=":n2_2_0" index="0" speed="18.06" length="8.84" shape="383.05,1501.65 378.81,1501.04 375.77,1499.23 375.25,1498.35"/>
    </edge>
    <edge id=":n2_8" function="internal">
        <lane id=":n2_8_0" index="0" speed="18.06" length="6.80" shape="375.25,1498.35 373.96,1496.19 373.35,1491.95"/>
    </edge>
    <edge id=":n2_3" function="internal">