<?xml version="1.0" encoding="UTF-8"?>

<!-- generated on Tue May  5 13:08:04 2015 by SUMO netconvert Version 0.22.0
<?xml version="1.0" encoding="UTF-8"?>

<configuration xmlns:xsi="http://www.w3.org/2001/XMLSchema-instance" xsi:noNamespaceSchemaLocation="http://sumo.dlr.de/xsd/netconvertConfiguration.xsd">

    <input>
        <node-files value="nodos.nod.xml"/>
        <edge-files value="edges.edg.xml"/>
        <connection-files value="conexiones.con.xml"/>
    </input>

    <output>
        <output-file value="manhh.net.xml"/>
    </output>

    <report>
        <verbose value="true"/>
    </report>

</configuration>
-->

<net version="0.13" xmlns:xsi="http://www.w3.org/2001/XMLSchema-instance" xsi:noNamespaceSchemaLocation="http://sumo.dlr.de/xsd/net_file.xsd">

    <location netOffset="0.00,0.00" convBoundary="0.00,0.00,1500.00,1500.00" origBoundary="0.00,0.00,1500.00,1500.00" projParameter="!"/>

    <edge id=":n1_0" function="internal">
        <lane id=":n1_0_0" index="0" speed="18.06" length="7.90" shape="3.25,1501.65 1.11,1501.34 -0.42,1500.43 -1.34,1498.89 -1.65,1496.75"/>
    </edge>
    <edge id=":n1_1" function="internal">
        <lane id=":n1_1_0" index="0" speed="18.06" length="2.58" shape="1.65,1496.75 1.75,1497.45 2.05,1497.95 2.55,1498.25 3.25,1498.35"/>
    </edge>
    <edge id=":n10_0" function="internal">
        <lane id=":n10_0_0" index="0" speed="18.06" length="5.00" shape="498.35,504.75 498.16,503.39 497.58,502.43 496.61,501.84 495.25,501.65"/>
    </edge>
    <edge id=":n10_1" function="internal">
        <lane id=":n10_1_0" index="0" speed="18.06" length="9.50" shape="498.35,504.75 498.35,495.25"/>
    </edge>
    <edge id=":n10_2" function="internal">
        <lane id=":n10_2_0" index="0" speed="18.06" length="3.18" shape="498.35,504.75 498.75,501.95 498.93,501.65"/>
    </edge>
    <edge id=":n10_12" function="internal">
        <lane id=":n10_12_0" index="0" speed="18.06" length="7.14" shape="498.93,501.65 499.95,499.95 501.95,498.75 504.75,498.35"/>
    </edge>
    <edge id=":n10_3" function="internal">
        <lane id=":n10_3_0" index="0" speed="18.06" length="5.00" shape="504.75,501.65 503.39,501.84 502.43,502.42 501.84,503.39 501.65,504.75"/>
    </edge>
    <edge id=":n10_4" function="internal">
        <lane id=":n10_4_0" index="0" speed="18.06" length="9.50" shape="504.75,501.65 495.25,501.65"/>
    </edge>
    <edge id=":n10_5" function="internal">
        <lane id=":n10_5_0" index="0" speed="18.06" length="3.18" shape="504.75,501.65 501.95,501.25 501.65,501.07"/>
    </edge>
    <edge id=":n10_13" function="internal">
        <lane id=":n10_13_0" index="0" speed="18.06" length="7.14" shape="501.65,501.07 499.95,500.05 498.75,498.05 498.35,495.25"/>
    </edge>
    <edge id=":n10_6" function="internal">
        <lane id=":n10_6_0" index="0" speed="18.06" length="5.00" shape="501.65,495.25 501.84,496.61 502.42,497.57 503.39,498.16 504.75,498.35"/>
    </edge>
    <edge id=":n10_7" function="internal">
        <lane id=":n10_7_0" index="0" speed="18.06" length="9.50" shape="501.65,495.25 501.65,504.75"/>
    </edge>
    <edge id=":n10_8" function="internal">
        <lane id=":n10_8_0" index="0" speed="18.06" length="3.18" shape="501.65,495.25 501.25,498.05 501.07,498.35"/>
    </edge>
    <edge id=":n10_14" function="internal">
        <lane id=":n10_14_0" index="0" speed="18.06" length="7.14" shape="501.07,498.35 500.05,500.05 498.05,501.25 495.25,501.65"/>
    </edge>
    <edge id=":n10_9" function="internal">
        <lane id=":n10_9_0" index="0" speed="18.06" length="5.00" shape="495.25,498.35 496.61,498.16 497.57,497.58 498.16,496.61 498.35,495.25"/>
    </edge>
    <edge id=":n10_10" function="internal">
        <lane id=":n10_10_0" index="0" speed="18.06" length="9.50" shape="495.25,498.35 504.75,498.35"/>
    </edge>
    <edge id=":n10_11" function="internal">
        <lane id=":n10_11_0" index="0" speed="18.06" length="3.18" shape="495.25,498.35 498.05,498.75 498.35,498.93"/>
    </edge>
    <edge id=":n10_15" function="internal">
        <lane id=":n10_15_0" index="0" speed="18.06" length="7.14" shape="498.35,498.93 500.05,499.95 501.25,501.95 501.65,504.75"/>
    </edge>
    <edge id=":n11_0" function="internal">
        <lane id=":n11_0_0" index="0" speed="18.06" length="5.00" shape="998.35,504.75 998.16,503.39 997.58,502.43 996.61,501.84 995.25,501.65"/>
    </edge>
    <edge id=":n11_1" function="internal">
        <lane id=":n11_1_0" index="0" speed="18.06" length="9.50" shape="998.35,504.75 998.35,495.25"/>
    </edge>
    <edge id=":n11_2" function="internal">
        <lane id=":n11_2_0" index="0" speed="18.06" length="3.18" shape="998.35,504.75 998.75,501.95 998.93,501.65"/>
    </edge>
    <edge id=":n11_12" function="internal">
        <lane id=":n11_12_0" index="0" speed="18.06" length="7.14" shape="998.93,501.65 999.95,499.95 1001.95,498.75 1004.75,498.35"/>
    </edge>
    <edge id=":n11_3" function="internal">
        <lane id=":n11_3_0" index="0" speed="18.06" length="5.00" shape="1004.75,501.65 1003.39,501.84 1002.43,502.42 1001.84,503.39 1001.65,504.75"/>
    </edge>
    <edge id=":n11_4" function="internal">
        <lane id=":n11_4_0" index="0" speed="18.06" length="9.50" shape="1004.75,501.65 995.25,501.65"/>
    </edge>
    <edge id=":n11_5" function="internal">
        <lane id=":n11_5_0" index="0" speed="18.06" length="3.18" shape="1004.75,501.65 1001.95,501.25 1001.65,501.07"/>
    </edge>
    <edge id=":n11_13" function="internal">
        <lane id=":n11_13_0" index="0" speed="18.06" length="7.14" shape="1001.65,501.07 999.95,500.05 998.75,498.05 998.35,495.25"/>
    </edge>
    <edge id=":n11_6" function="internal">
        <lane id=":n11_6_0" index="0" speed="18.06" length="5.00" shape="1001.65,495.25 1001.84,496.61 1002.42,497.57 1003.39,498.16 1004.75,498.35"/>
    </edge>
    <edge id=":n11_7" function="internal">
        <lane id=":n11_7_0" index="0" speed="18.06" length="9.50" shape="1001.65,495.25 1001.65,504.75"/>
    </edge>
    <edge id=":n11_8" function="internal">
        <lane id=":n11_8_0" index="0" speed="18.06" length="3.18" shape="1001.65,495.25 1001.25,498.05 1001.07,498.35"/>
    </edge>
    <edge id=":n11_14" function="internal">
        <lane id=":n11_14_0" index="0" speed="18.06" length="7.14" shape="1001.07,498.35 1000.05,500.05 998.05,501.25 995.25,501.65"/>
    </edge>
    <edge id=":n11_9" function="internal">
        <lane id=":n11_9_0" index="0" speed="18.06" length="5.00" shape="995.25,498.35 996.61,498.16 997.57,497.58 998.16,496.61 998.35,495.25"/>
    </edge>
    <edge id=":n11_10" function="internal">
        <lane id=":n11_10_0" index="0" speed="18.06" length="9.50" shape="995.25,498.35 1004.75,498.35"/>
    </edge>
    <edge id=":n11_11" function="internal">
        <lane id=":n11_11_0" index="0" speed="18.06" length="3.18" shape="995.25,498.35 998.05,498.75 998.35,498.93"/>
    </edge>
    <edge id=":n11_15" function="internal">
        <lane id=":n11_15_0" index="0" speed="18.06" length="7.14" shape="998.35,498.93 1000.05,499.95 1001.25,501.95 1001.65,504.75"/>
    </edge>
    <edge id=":n12_0" function="internal">
        <lane id=":n12_0_0" index="0" speed="18.06" length="5.00" shape="1498.35,504.75 1498.16,503.39 1497.57,502.43 1496.61,501.84 1495.25,501.65"/>
    </edge>
    <edge id=":n12_1" function="internal">
        <lane id=":n12_1_0" index="0" speed="18.06" length="9.50" shape="1498.35,504.75 1498.35,495.25"/>
    </edge>
    <edge id=":n12_2" function="internal">
        <lane id=":n12_2_0" index="0" speed="18.06" length="9.50" shape="1501.65,495.25 1501.65,504.75"/>
    </edge>
    <edge id=":n12_3" function="internal">
        <lane id=":n12_3_0" index="0" speed="18.06" length="7.14" shape="1501.65,495.25 1501.25,498.05 1500.05,500.05 1498.35,501.07"/>
    </edge>
    <edge id=":n12_6" function="internal">
        <lane id=":n12_6_0" index="0" speed="18.06" length="3.18" shape="1498.35,501.07 1498.05,501.25 1495.25,501.65"/>
    </edge>
    <edge id=":n12_4" function="internal">
        <lane id=":n12_4_0" index="0" speed="18.06" length="5.00" shape="1495.25,498.35 1496.61,498.16 1497.57,497.58 1498.16,496.61 1498.35,495.25"/>
    </edge>
    <edge id=":n12_5" function="internal">
        <lane id=":n12_5_0" index="0" speed="18.06" length="3.18" shape="1495.25,498.35 1498.05,498.75 1498.35,498.93"/>
    </edge>
    <edge id=":n12_7" function="internal">
        <lane id=":n12_7_0" index="0" speed="18.06" length="7.14" shape="1498.35,498.93 1500.05,499.95 1501.25,501.95 1501.65,504.75"/>
    </edge>
    <edge id=":n13_0" function="internal">
        <lane id=":n13_0_0" index="0" speed="18.06" length="7.90" shape="-1.65,3.25 -1.34,1.11 -0.43,-0.42 1.11,-1.34 3.25,-1.65"/>
    </edge>
    <edge id=":n13_1" function="internal">
        <lane id=":n13_1_0" index="0" speed="18.06" length="2.58" shape="3.25,1.65 2.55,1.75 2.05,2.05 1.75,2.55 1.65,3.25"/>
    </edge>
    <edge id=":n14_0" function="internal">
        <lane id=":n14_0_0" index="0" speed="18.06" length="5.00" shape="498.35,4.75 498.16,3.39 497.58,2.42 496.61,1.84 495.25,1.65"/>
    </edge>
    <edge id=":n14_1" function="internal">
        <lane id=":n14_1_0" index="0" speed="18.06" length="3.18" shape="498.35,4.75 498.75,1.95 498.93,1.65"/>
    </edge>
    <edge id=":n14_6" function="internal">
        <lane id=":n14_6_0" index="0" speed="18.06" length="7.14" shape="498.93,1.65 499.95,-0.05 501.95,-1.25 504.75,-1.65"/>
    </edge>
    <edge id=":n14_2" function="internal">
        <lane id=":n14_2_0" index="0" speed="18.06" length="5.00" shape="504.75,1.65 503.39,1.84 502.43,2.42 501.84,3.39 501.65,4.75"/>
    </edge>
    <edge id=":n14_3" function="internal">
        <lane id=":n14_3_0" index="0" speed="18.06" length="9.50" shape="504.75,1.65 495.25,1.65"/>
    </edge>
    <edge id=":n14_4" function="internal">
        <lane id=":n14_4_0" index="0" speed="18.06" length="9.50" shape="495.25,-1.65 504.75,-1.65"/>
    </edge>
    <edge id=":n14_5" function="internal">
        <lane id=":n14_5_0" index="0" speed="18.06" length="7.14" shape="495.25,-1.65 498.05,-1.25 500.05,-0.05 501.07,1.65"/>
    </edge>
    <edge id=":n14_7" function="internal">
        <lane id=":n14_7_0" index="0" speed="18.06" length="3.18" shape="501.07,1.65 501.25,1.95 501.65,4.75"/>
    </edge>
    <edge id=":n15_0" function="internal">
        <lane id=":n15_0_0" index="0" speed="18.06" length="5.00" shape="998.35,4.75 998.16,3.39 997.58,2.43 996.61,1.84 995.25,1.65"/>
    </edge>
    <edge id=":n15_1" function="internal">
        <lane id=":n15_1_0" index="0" speed="18.06" length="3.18" shape="998.35,4.75 998.75,1.95 998.93,1.65"/>
    </edge>
    <edge id=":n15_6" function="internal">
        <lane id=":n15_6_0" index="0" speed="18.06" length="7.14" shape="998.93,1.65 999.95,-0.05 1001.95,-1.25 1004.75,-1.65"/>
    </edge>
    <edge id=":n15_2" function="internal">
        <lane id=":n15_2_0" index="0" speed="18.06" length="5.00" shape="1004.75,1.65 1003.39,1.84 1002.43,2.42 1001.84,3.39 1001.65,4.75"/>
    </edge>
    <edge id=":n15_3" function="internal">
        <lane id=":n15_3_0" index="0" speed="18.06" length="9.50" shape="1004.75,1.65 995.25,1.65"/>
    </edge>
    <edge id=":n15_4" function="internal">
        <lane id=":n15_4_0" index="0" speed="18.06" length="9.50" shape="995.25,-1.65 1004.75,-1.65"/>
    </edge>
    <edge id=":n15_5" function="internal">
        <lane id=":n15_5_0" index="0" speed="18.06" length="7.14" shape="995.25,-1.65 998.05,-1.25 1000.05,-0.05 1001.07,1.65"/>
    </edge>
    <edge id=":n15_7" function="internal">
        <lane id=":n15_7_0" index="0" speed="18.06" length="3.18" shape="1001.07,1.65 1001.25,1.95 1001.65,4.75"/>
    </edge>
    <edge id=":n16_0" function="internal">
        <lane id=":n16_0_0" index="0" speed="18.06" length="2.58" shape="1498.35,3.25 1498.25,2.55 1497.95,2.05 1497.45,1.75 1496.75,1.65"/>
    </edge>
    <edge id=":n16_1" function="internal">
        <lane id=":n16_1_0" index="0" speed="18.06" length="7.90" shape="1496.75,-1.65 1498.89,-1.34 1500.43,-0.43 1501.34,1.11 1501.65,3.25"/>
    </edge>
    <edge id=":n2_0" function="internal">
        <lane id=":n2_0_0" index="0" speed="18.06" length="9.50" shape="504.75,1501.65 495.25,1501.65"/>
    </edge>
    <edge id=":n2_1" function="internal">
        <lane id=":n2_1_0" index="0" speed="18.06" length="7.14" shape="504.75,1501.65 501.95,1501.25 499.95,1500.05 498.93,1498.35"/>
    </edge>
    <edge id=":n2_6" function="internal">
        <lane id=":n2_6_0" index="0" speed="18.06" length="3.18" shape="498.93,1498.35 498.75,1498.05 498.35,1495.25"/>
    </edge>
    <edge id=":n2_2" function="internal">
        <lane id=":n2_2_0" index="0" speed="18.06" length="5.00" shape="501.65,1495.25 501.84,1496.61 502.42,1497.57 503.39,1498.16 504.75,1498.35"/>
    </edge>
    <edge id=":n2_3" function="internal">
        <lane id=":n2_3_0" index="0" speed="18.06" length="3.18" shape="501.65,1495.25 501.25,1498.05 501.07,1498.35"/>
    </edge>
    <edge id=":n2_7" function="internal">
        <lane id=":n2_7_0" index="0" speed="18.06" length="7.14" shape="501.07,1498.35 500.05,1500.05 498.05,1501.25 495.25,1501.65"/>
    </edge>
    <edge id=":n2_4" function="internal">
        <lane id=":n2_4_0" index="0" speed="18.06" length="5.00" shape="495.25,1498.35 496.61,1498.16 497.58,1497.57 498.16,1496.61 498.35,1495.25"/>
    </edge>
    <edge id=":n2_5" function="internal">
        <lane id=":n2_5_0" index="0" speed="18.06" length="9.50" shape="495.25,1498.35 504.75,1498.35"/>
    </edge>
    <edge id=":n3_0" function="internal">
        <lane id=":n3_0_0" index="0" speed="18.06" length="9.50" shape="1004.75,1501.65 995.25,1501.65"/>
    </edge>
    <edge id=":n3_1" function="internal">
        <lane id=":n3_1_0" index="0" speed="18.06" length="7.14" shape="1004.75,1501.65 1001.95,1501.25 999.95,1500.05 998.93,1498.35"/>
    </edge>
    <edge id=":n3_6" function="internal">
        <lane id=":n3_6_0" index="0" speed="18.06" length="3.18" shape="998.93,1498.35 998.75,1498.05 998.35,1495.25"/>
    </edge>
    <edge id=":n3_2" function="internal">
        <lane id=":n3_2_0" index="0" speed="18.06" length="5.00" shape="1001.65,1495.25 1001.84,1496.61 1002.42,1497.57 1003.39,1498.16 1004.75,1498.35"/>
    </edge>
    <edge id=":n3_3" function="internal">
        <lane id=":n3_3_0" index="0" speed="18.06" length="3.18" shape="1001.65,1495.25 1001.25,1498.05 1001.07,1498.35"/>
    </edge>
    <edge id=":n3_7" function="internal">
        <lane id=":n3_7_0" index="0" speed="18.06" length="7.14" shape="1001.07,1498.35 1000.05,1500.05 998.05,1501.25 995.25,1501.65"/>
    </edge>
    <edge id=":n3_4" function="internal">
        <lane id=":n3_4_0" index="0" speed="18.06" length="5.00" shape="995.25,1498.35 996.61,1498.16 997.57,1497.57 998.16,1496.61 998.35,1495.25"/>
    </edge>
    <edge id=":n3_5" function="internal">
        <lane id=":n3_5_0" index="0" speed="18.06" length="9.50" shape="995.25,1498.35 1004.75,1498.35"/>
    </edge>
    <edge id=":n4_0" function="internal">
        <lane id=":n4_0_0" index="0" speed="18.06" length="7.90" shape="1501.65,1496.75 1501.34,1498.89 1500.43,1500.43 1498.89,1501.34 1496.75,1501.65"/>
    </edge>
    <edge id=":n4_1" function="internal">
        <lane id=":n4_1_0" index="0" speed="18.06" length="2.58" shape="1496.75,1498.35 1497.45,1498.25 1497.95,1497.95 1498.25,1497.45 1498.35,1496.75"/>
    </edge>
    <edge id=":n5_0" function="internal">
        <lane id=":n5_0_0" index="0" speed="18.06" length="9.50" shape="-1.65,1004.75 -1.65,995.25"/>
    </edge>
    <edge id=":n5_1" function="internal">
        <lane id=":n5_1_0" index="0" speed="18.06" length="7.14" shape="-1.65,1004.75 -1.25,1001.95 -0.05,999.95 1.65,998.93"/>
    </edge>
    <edge id=":n5_6" function="internal">
        <lane id=":n5_6_0" index="0" speed="18.06" length="3.18" shape="1.65,998.93 1.95,998.75 4.75,998.35"/>
    </edge>
    <edge id=":n5_2" function="internal">
        <lane id=":n5_2_0" index="0" speed="18.06" length="5.00" shape="4.75,1001.65 3.39,1001.84 2.42,1002.42 1.84,1003.39 1.65,1004.75"/>
    </edge>
    <edge id=":n5_3" function="internal">
        <lane id=":n5_3_0" index="0" speed="18.06" length="3.18" shape="4.75,1001.65 1.95,1001.25 1.65,1001.07"/>
    </edge>
    <edge id=":n5_7" function="internal">
        <lane id=":n5_7_0" index="0" speed="18.06" length="7.14" shape="1.65,1001.07 -0.05,1000.05 -1.25,998.05 -1.65,995.25"/>
    </edge>
    <edge id=":n5_4" function="internal">
        <lane id=":n5_4_0" index="0" speed="18.06" length="5.00" shape="1.65,995.25 1.84,996.61 2.42,997.57 3.39,998.16 4.75,998.35"/>
    </edge>
    <edge id=":n5_5" function="internal">
        <lane id=":n5_5_0" index="0" speed="18.06" length="9.50" shape="1.65,995.25 1.65,1004.75"/>
    </edge>
    <edge id=":n6_0" function="internal">
        <lane id=":n6_0_0" index="0" speed="18.06" length="5.00" shape="498.35,1004.75 498.16,1003.39 497.58,1002.43 496.61,1001.84 495.25,1001.65"/>
    </edge>
    <edge id=":n6_1" function="internal">
        <lane id=":n6_1_0" index="0" speed="18.06" length="9.50" shape="498.35,1004.75 498.35,995.25"/>
    </edge>
    <edge id=":n6_2" function="internal">
        <lane id=":n6_2_0" index="0" speed="18.06" length="3.18" shape="498.35,1004.75 498.75,1001.95 498.93,1001.65"/>
    </edge>
    <edge id=":n6_12" function="internal">
        <lane id=":n6_12_0" index="0" speed="18.06" length="7.14" shape="498.93,1001.65 499.95,999.95 501.95,998.75 504.75,998.35"/>
    </edge>
    <edge id=":n6_3" function="internal">
        <lane id=":n6_3_0" index="0" speed="18.06" length="5.00" shape="504.75,1001.65 503.39,1001.84 502.43,1002.42 501.84,1003.39 501.65,1004.75"/>
    </edge>
    <edge id=":n6_4" function="internal">
        <lane id=":n6_4_0" index="0" speed="18.06" length="9.50" shape="504.75,1001.65 495.25,1001.65"/>
    </edge>
    <edge id=":n6_5" function="internal">
        <lane id=":n6_5_0" index="0" speed="18.06" length="3.18" shape="504.75,1001.65 501.95,1001.25 501.65,1001.07"/>
    </edge>
    <edge id=":n6_13" function="internal">
        <lane id=":n6_13_0" index="0" speed="18.06" length="7.14" shape="501.65,1001.07 499.95,1000.05 498.75,998.05 498.35,995.25"/>
    </edge>
    <edge id=":n6_6" function="internal">
        <lane id=":n6_6_0" index="0" speed="18.06" length="5.00" shape="501.65,995.25 501.84,996.61 502.42,997.57 503.39,998.16 504.75,998.35"/>
    </edge>
    <edge id=":n6_7" function="internal">
        <lane id=":n6_7_0" index="0" speed="18.06" length="9.50" shape="501.65,995.25 501.65,1004.75"/>
    </edge>
    <edge id=":n6_8" function="internal">
        <lane id=":n6_8_0" index="0" speed="18.06" length="3.18" shape="501.65,995.25 501.25,998.05 501.07,998.35"/>
    </edge>
    <edge id=":n6_14" function="internal">
        <lane id=":n6_14_0" index="0" speed="18.06" length="7.14" shape="501.07,998.35 500.05,1000.05 498.05,1001.25 495.25,1001.65"/>
    </edge>
    <edge id=":n6_9" function="internal">
        <lane id=":n6_9_0" index="0" speed="18.06" length="5.00" shape="495.25,998.35 496.61,998.16 497.57,997.58 498.16,996.61 498.35,995.25"/>
    </edge>
    <edge id=":n6_10" function="internal">
        <lane id=":n6_10_0" index="0" speed="18.06" length="9.50" shape="495.25,998.35 504.75,998.35"/>
    </edge>
    <edge id=":n6_11" function="internal">
        <lane id=":n6_11_0" index="0" speed="18.06" length="3.18" shape="495.25,998.35 498.05,998.75 498.35,998.93"/>
    </edge>
    <edge id=":n6_15" function="internal">
        <lane id=":n6_15_0" index="0" speed="18.06" length="7.14" shape="498.35,998.93 500.05,999.95 501.25,1001.95 501.65,1004.75"/>
    </edge>
    <edge id=":n7_0" function="internal">
        <lane id=":n7_0_0" index="0" speed="18.06" length="5.00" shape="998.35,1004.75 998.16,1003.39 997.58,1002.43 996.61,1001.84 995.25,1001.65"/>
    </edge>
    <edge id=":n7_1" function="internal">
        <lane id=":n7_1_0" index="0" speed="18.06" length="9.50" shape="998.35,1004.75 998.35,995.25"/>
    </edge>
    <edge id=":n7_2" function="internal">
        <lane id=":n7_2_0" index="0" speed="18.06" length="3.18" shape="998.35,1004.75 998.75,1001.95 998.93,1001.65"/>
    </edge>
    <edge id=":n7_12" function="internal">
        <lane id=":n7_12_0" index="0" speed="18.06" length="7.14" shape="998.93,1001.65 999.95,999.95 1001.95,998.75 1004.75,998.35"/>
    </edge>
    <edge id=":n7_3" function="internal">
        <lane id=":n7_3_0" index="0" speed="18.06" length="5.00" shape="1004.75,1001.65 1003.39,1001.84 1002.43,1002.42 1001.84,1003.39 1001.65,1004.75"/>
    </edge>
    <edge id=":n7_4" function="internal">
        <lane id=":n7_4_0" index="0" speed="18.06" length="9.50" shape="1004.75,1001.65 995.25,1001.65"/>
    </edge>
    <edge id=":n7_5" function="internal">
        <lane id=":n7_5_0" index="0" speed="18.06" length="3.18" shape="1004.75,1001.65 1001.95,1001.25 1001.65,1001.07"/>
    </edge>
    <edge id=":n7_13" function="internal">
        <lane id=":n7_13_0" index="0" speed="18.06" length="7.14" shape="1001.65,1001.07 999.95,1000.05 998.75,998.05 998.35,995.25"/>
    </edge>
    <edge id=":n7_6" function="internal">
        <lane id=":n7_6_0" index="0" speed="18.06" length="5.00" shape="1001.65,995.25 1001.84,996.61 1002.42,997.57 1003.39,998.16 1004.75,998.35"/>
    </edge>
    <edge id=":n7_7" function="internal">
        <lane id=":n7_7_0" index="0" speed="18.06" length="9.50" shape="1001.65,995.25 1001.65,1004.75"/>
    </edge>
    <edge id=":n7_8" function="internal">
        <lane id=":n7_8_0" index="0" speed="18.06" length="3.18" shape="1001.65,995.25 1001.25,998.05 1001.07,998.35"/>
    </edge>
    <edge id=":n7_14" function="internal">
        <lane id=":n7_14_0" index="0" speed="18.06" length="7.14" shape="1001.07,998.35 1000.05,1000.05 998.05,1001.25 995.25,1001.65"/>
    </edge>
    <edge id=":n7_9" function="internal">
        <lane id=":n7_9_0" index="0" speed="18.06" length="5.00" shape="995.25,998.35 996.61,998.16 997.57,997.58 998.16,996.61 998.35,995.25"/>
    </edge>
    <edge id=":n7_10" function="internal">
        <lane id=":n7_10_0" index="0" speed="18.06" length="9.50" shape="995.25,998.35 1004.75,998.35"/>
    </edge>
    <edge id=":n7_11" function="internal">
        <lane id=":n7_11_0" index="0" speed="18.06" length="3.18" shape="995.25,998.35 998.05,998.75 998.35,998.93"/>
    </edge>
    <edge id=":n7_15" function="internal">
        <lane id=":n7_15_0" index="0" speed="18.06" length="7.14" shape="998.35,998.93 1000.05,999.95 1001.25,1001.95 1001.65,1004.75"/>
    </edge>
    <edge id=":n8_0" function="internal">
        <lane id=":n8_0_0" index="0" speed="18.06" length="5.00" shape="1498.35,1004.75 1498.16,1003.39 1497.57,1002.43 1496.61,1001.84 1495.25,1001.65"/>
    </edge>
    <edge id=":n8_1" function="internal">
        <lane id=":n8_1_0" index="0" speed="18.06" length="9.50" shape="1498.35,1004.75 1498.35,995.25"/>
    </edge>
    <edge id=":n8_2" function="internal">
        <lane id=":n8_2_0" index="0" speed="18.06" length="9.50" shape="1501.65,995.25 1501.65,1004.75"/>
    </edge>
    <edge id=":n8_3" function="internal">
        <lane id=":n8_3_0" index="0" speed="18.06" length="7.14" shape="1501.65,995.25 1501.25,998.05 1500.05,1000.05 1498.35,1001.07"/>
    </edge>
    <edge id=":n8_6" function="internal">
        <lane id=":n8_6_0" index="0" speed="18.06" length="3.18" shape="1498.35,1001.07 1498.05,1001.25 1495.25,1001.65"/>
    </edge>
    <edge id=":n8_4" function="internal">
        <lane id=":n8_4_0" index="0" speed="18.06" length="5.00" shape="1495.25,998.35 1496.61,998.16 1497.57,997.58 1498.16,996.61 1498.35,995.25"/>
    </edge>
    <edge id=":n8_5" function="internal">
        <lane id=":n8_5_0" index="0" speed="18.06" length="3.18" shape="1495.25,998.35 1498.05,998.75 1498.35,998.93"/>
    </edge>
    <edge id=":n8_7" function="internal">
        <lane id=":n8_7_0" index="0" speed="18.06" length="7.14" shape="1498.35,998.93 1500.05,999.95 1501.25,1001.95 1501.65,1004.75"/>
    </edge>
    <edge id=":n9_0" function="internal">
        <lane id=":n9_0_0" index="0" speed="18.06" length="9.50" shape="-1.65,504.75 -1.65,495.25"/>
    </edge>
    <edge id=":n9_1" function="internal">
        <lane id=":n9_1_0" index="0" speed="18.06" length="7.14" shape="-1.65,504.75 -1.25,501.95 -0.05,499.95 1.65,498.93"/>
    </edge>
    <edge id=":n9_6" function="internal">
        <lane id=":n9_6_0" index="0" speed="18.06" length="3.18" shape="1.65,498.93 1.95,498.75 4.75,498.35"/>
    </edge>
    <edge id=":n9_2" function="internal">
        <lane id=":n9_2_0" index="0" speed="18.06" length="5.00" shape="4.75,501.65 3.39,501.84 2.43,502.42 1.84,503.39 1.65,504.75"/>
    </edge>
    <edge id=":n9_3" function="internal">
        <lane id=":n9_3_0" index="0" speed="18.06" length="3.18" shape="4.75,501.65 1.95,501.25 1.65,501.07"/>
    </edge>
    <edge id=":n9_7" function="internal">
        <lane id=":n9_7_0" index="0" speed="18.06" length="7.14" shape="1.65,501.07 -0.05,500.05 -1.25,498.05 -1.65,495.25"/>
    </edge>
    <edge id=":n9_4" function="internal">
        <lane id=":n9_4_0" index="0" speed="18.06" length="5.00" shape="1.65,495.25 1.84,496.61 2.42,497.58 3.39,498.16 4.75,498.35"/>
    </edge>
    <edge id=":n9_5" function="internal">
        <lane id=":n9_5_0" index="0" speed="18.06" length="9.50" shape="1.65,495.25 1.65,504.75"/>
    </edge>

    <edge id="D1-5" from="n1" to="n5" priority="75">
        <lane id="D1-5_0" index="0" speed="18.06" length="492.00" shape="-1.65,1496.75 -1.65,1004.75"/>
    </edge>
    <edge id="D10-14" from="n10" to="n14" priority="75">
        <lane id="D10-14_0" index="0" speed="18.06" length="490.50" shape="498.35,495.25 498.35,4.75"/>
    </edge>
    <edge id="D11-15" from="n11" to="n15" priority="75">
        <lane id="D11-15_0" index="0" speed="18.06" length="490.50" shape="998.35,495.25 998.35,4.75"/>
    </edge>
    <edge id="D12-16" from="n12" to="n16" priority="75">
        <lane id="D12-16_0" index="0" speed="18.06" length="492.00" shape="1498.35,495.25 1498.35,3.25"/>
    </edge>
    <edge id="D2-6" from="n2" to="n6" priority="75">
        <lane id="D2-6_0" index="0" speed="18.06" length="490.50" shape="498.35,1495.25 498.35,1004.75"/>
    </edge>
    <edge id="D3-7" from="n3" to="n7" priority="75">
        <lane id="D3-7_0" index="0" speed="18.06" length="490.50" shape="998.35,1495.25 998.35,1004.75"/>
    </edge>
    <edge id="D4-8" from="n4" to="n8" priority="75">
        <lane id="D4-8_0" index="0" speed="18.06" length="492.00" shape="1498.35,1496.75 1498.35,1004.75"/>
    </edge>
    <edge id="D5-9" from="n5" to="n9" priority="75">
        <lane id="D5-9_0" index="0" speed="18.06" length="490.50" shape="-1.65,995.25 -1.65,504.75"/>
    </edge>
    <edge id="D6-10" from="n6" to="n10" priority="75">
        <lane id="D6-10_0" index="0" speed="18.06" length="490.50" shape="498.35,995.25 498.35,504.75"/>
    </edge>
    <edge id="D7-11" from="n7" to="n11" priority="75">
        <lane id="D7-11_0" index="0" speed="18.06" length="490.50" shape="998.35,995.25 998.35,504.75"/>
    </edge>
    <edge id="D8-12" from="n8" to="n12" priority="75">
        <lane id="D8-12_0" index="0" speed="18.06" length="490.50" shape="1498.35,995.25 1498.35,504.75"/>
    </edge>
    <edge id="D9-13" from="n9" to="n13" priority="75">
        <lane id="D9-13_0" index="0" speed="18.06" length="492.00" shape="-1.65,495.25 -1.65,3.25"/>
    </edge>
    <edge id="L10-9" from="n10" to="n9" priority="75">
        <lane id="L10-9_0" index="0" speed="18.06" length="490.50" shape="495.25,501.65 4.75,501.65"/>
    </edge>
    <edge id="L11-10" from="n11" to="n10" priority="75">
        <lane id="L11-10_0" index="0" speed="18.06" length="490.50" shape="995.25,501.65 504.75,501.65"/>
    </edge>
    <edge id="L12-11" from="n12" to="n11" priority="75">
        <lane id="L12-11_0" index="0" speed="18.06" length="490.50" shape="1495.25,501.65 1004.75,501.65"/>
    </edge>
    <edge id="L14-13" from="n14" to="n13" priority="75">
        <lane id="L14-13_0" index="0" speed="18.06" length="492.00" shape="495.25,1.65 3.25,1.65"/>
    </edge>
    <edge id="L15-14" from="n15" to="n14" priority="75">
        <lane id="L15-14_0" index="0" speed="18.06" length="490.50" shape="995.25,1.65 504.75,1.65"/>
    </edge>
    <edge id="L16-15" from="n16" to="n15" priority="75">
        <lane id="L16-15_0" index="0" speed="18.06" length="492.00" shape="1496.75,1.65 1004.75,1.65"/>
    </edge>
    <edge id="L2-1" from="n2" to="n1" priority="75">
        <lane id="L2-1_0" index="0" speed="18.06" length="492.00" shape="495.25,1501.65 3.25,1501.65"/>
    </edge>
    <edge id="L3-2" from="n3" to="n2" priority="75">
        <lane id="L3-2_0" index="0" speed="18.06" length="490.50" shape="995.25,1501.65 504.75,1501.65"/>
    </edge>
    <edge id="L4-3" from="n4" to="n3" priority="75">
        <lane id="L4-3_0" index="0" speed="18.06" length="492.00" shape="1496.75,1501.65 1004.75,1501.65"/>
    </edge>
    <edge id="L6-5" from="n6" to="n5" priority="75">
        <lane id="L6-5_0" index="0" speed="18.06" length="490.50" shape="495.25,1001.65 4.75,1001.65"/>
    </edge>
    <edge id="L7-6" from="n7" to="n6" priority="75">
        <lane id="L7-6_0" index="0" speed="18.06" length="490.50" shape="995.25,1001.65 504.75,1001.65"/>
    </edge>
    <edge id="L8-7" from="n8" to="n7" priority="75">
        <lane id="L8-7_0" index="0" speed="18.06" length="490.50" shape="1495.25,1001.65 1004.75,1001.65"/>
    </edge>
    <edge id="R1-2" from="n1" to="n2" priority="75">
        <lane id="R1-2_0" index="0" speed="18.06" length="492.00" shape="3.25,1498.35 495.25,1498.35"/>
    </edge>
    <edge id="R10-11" from="n10" to="n11" priority="75">
        <lane id="R10-11_0" index="0" speed="18.06" length="490.50" shape="504.75,498.35 995.25,498.35"/>
    </edge>