[General]
network = Prj_Part1_propag.scenarioPRJP1
debug-on-errors = true
print-undisposed = false

tkenv-plugin-path = ../../../etc/plugins

cmdenv-express-mode = true
cmdenv-autoflush = true
cmdenv-status-frequency = 10000000s

**.scalar-recording = true
**.vector-recording = true

**.debug = false
**.coreDebug = false

sim-time-limit = 1900s
repeat = 30
num-rngs=2
seed-1-mt= 34543 #345434

#####################################
# TraCIScenarioManager parameters   #
#####################################
**.manager.updateInterval = 0.1s
**.manager.host = "localhost"
**.manager.port = 9999
**.manager.moduleType = "Prj_Part1_propag.AODV.carAODV"
**.manager.moduleName = "node"
**.manager.moduleDisplayString = ""
**.manager.autoShutdown = true
**.manager.margin = 25

#####################################
#           WaveAppLayer            #
#####################################
**.node[*].app.chooseDestAddrMode = "perSend"
**.node[*].app.localPort = 1234
**.node[*].app.destPort = 1234
**.node[*].app.startTime = 30s
**.node[*].app.stopTime = 1800s
**.node[*].app.messageLength = 512B
**.node[*].app.burstDuration = 2s
**.node[*].app.sleepDuration = 1s
**.node[*].app.sendInterval = 0.25s + uniform(-0.001s,0.001s,1)
**.node[*].app.delayLimit = 20s
**.node[*].app.destAddrRNG = 1

#####################################
#            ip settings            #
#####################################
**.ip.procDelay = 1us

#####################################
#           NIC settings            #
#####################################
**.radioMedium.mediumLimitCache.carrierFrequency = 6GHz

*.*.wlan[*].opMode = "p"
*.*.wlan[*].bitrate = 6Mbps

*.*.wlan[*].mgmtType = "Ieee80211MgmtAdhoc"

*.*.wlan[*].mac.EDCA = true
*.*.wlan[*].mac.basicBitrate = 3Mbps
*.*.wlan[*].mac.controlBitrate = 3Mbps

*.*.wlan[*].radio.bandName = "5.9 GHz"
*.*.wlan[*].radio.carrierFrequency = 5.890GHz
*.*.wlan[*].radio.bandwidth = 10MHz
*.*.wlan[*].radio.transmitter.power = 20mW
*.*.wlan[*].radio.channelNumber = 3

#**.wlan.mac.slotTime = 9us ### 
#**.wlan.mac.AIFSN = 7 ####
#**.wlan.mac.slotTime = 13us ####
#**.wlan.mac.rtsThresholdBytes = 3000B
#**.wlan[*].mac.retryLimit = 3
**.wlan[*].mac.cwMinData = 15
**.wlan[*].mac.cwMaxData = 1023

####################################################################################################################
####################                         [Config AODV-Routing]                              #################### 
####################################################################################################################
[Config AODVRouting-FS-25]
**.pathLossType = "FreeSpacePathLoss"
**.manager.launchConfig = xmldoc("8manhh25.launchd.xml")
**.node[*].app.destAddresses = "10.0.0.12 10.0.0.35 10.0.0.58 10.0.0.81 10.0.0.104 10.0.0.127 10.0.0.150 10.0.0.173 10.0.0.196 10.0.0.219 10.0.0.242 10.0.1.9 10.0.1.32 10.0.1.55 10.0.1.78 10.0.1.101 10.0.1.124 10.0.1.147 10.0.1.170 10.0.1.193 10.0.1.216 10.0.1.239 10.0.2.6 10.0.2.29 10.0.2.52"

**.networkLayer.proxyARP = false

**.aodv.askGratuitousRREP = true
**.aodv.useHelloMessages = true
**.aodv.netDiameter = 90
**.aodv.activeRouteTimeout = 1s

[Config AODVRouting-FS-50]
extends = AODVRouting-FS-25
**.manager.launchConfig = xmldoc("8manhh50.launchd.xml")
**.node[*].app.destAddresses = "10.0.0.12 10.0.0.35 10.0.0.58 10.0.0.81 10.0.0.104 10.0.0.127 10.0.0.150 10.0.0.173 10.0.0.196 10.0.0.219 10.0.0.242 10.0.1.9 10.0.1.32 10.0.1.55 10.0.1.78 10.0.1.101 10.0.1.124 10.0.1.147 10.0.1.170 10.0.1.193 10.0.1.216 10.0.1.239 10.0.2.6 10.0.2.29 10.0.2.52 10.0.2.75 10.0.2.98 10.0.2.121 10.0.2.144 10.0.2.167 10.0.2.190 10.0.2.213 10.0.2.236 10.0.3.3 10.0.3.26 10.0.3.49 10.0.3.72 10.0.3.95 10.0.3.118 10.0.3.141 10.0.3.164 10.0.3.187 10.0.3.210 10.0.3.233 10.0.4.0 10.0.4.23 10.0.4.46 10.0.4.69 10.0.4.92. 10.0.4.115"

[Config AODVRouting-FS-75]
extends = AODVRouting-FS-25
**.manager.launchConfig = xmldoc("8manhh75.launchd.xml")
**.node[*].app.destAddresses = "10.0.0.12 10.0.0.35 10.0.0.58 10.0.0.81 10.0.0.104 10.0.0.127 10.0.0.150 10.0.0.173 10.0.0.196 10.0.0.219 10.0.0.242 10.0.1.9 10.0.1.32 10.0.1.55 10.0.1.78 10.0.1.101 10.0.1.124 10.0.1.147 10.0.1.170 10.0.1.193 10.0.1.216 10.0.1.239 10.0.2.6 10.0.2.29 10.0.2.52 10.0.2.75 10.0.2.98 10.0.2.121 10.0.2.144 10.0.2.167 10.0.2.190 10.0.2.213 10.0.2.236 10.0.3.3 10.0.3.26 10.0.3.49 10.0.3.72 10.0.3.95 10.0.3.118 10.0.3.141 10.0.3.164 10.0.3.187 10.0.3.210 10.0.3.233 10.0.4.0 10.0.4.23 10.0.4.46 10.0.4.69 10.0.4.92. 10.0.4.115 10.0.4.138 10.0.4.161 10.0.4.184 10.0.4.207 10.0.4.230 10.0.4.253 10.0.5.20 10.0.5.43 10.0.5.66 10.0.5.89 10.0.5.112 10.0.5.135 10.0.5.158 10.0.5.181 10.0.5.204 10.0.5.227 10.0.5.250 10.0.6.17 10.0.6.40 10.0.6.63 10.0.6.86 10.0.6.109 10.0.6.132 10.0.6.155 10.0.6.178"

[Config AODVRouting-FS-100]
extends = AODVRouting-FS-25
**.manager.launchConfig = xmldoc("8manhh100.launchd.xml")
**.node[*].app.destAddresses = "10.0.0.12 10.0.0.35 10.0.0.58 10.0.0.81 10.0.0.104 10.0.0.127 10.0.0.150 10.0.0.173 10.0.0.196 10.0.0.219 10.0.0.242 10.0.1.9 10.0.1.32 10.0.1.55 10.0.1.78 10.0.1.101 10.0.1.124 10.0.1.147 10.0.1.170 10.0.1.193 10.0.1.216 10.0.1.239 10.0.2.6 10.0.2.29 10.0.2.52 10.0.2.75 10.0.2.98 10.0.2.121 10.0.2.144 10.0.2.167 10.0.2.190 10.0.2.213 10.0.2.236 10.0.3.3 10.0.3.26 10.0.3.49 10.0.3.72 10.0.3.95 10.0.3.118 10.0.3.141 10.0.3.164 10.0.3.187 10.0.3.210 10.0.3.233 10.0.4.0 10.0.4.23 10.0.4.46 10.0.4.69 10.0.4.92. 10.0.4.115 10.0.4.138 10.0.4.161 10.0.4.184 10.0.4.207 10.0.4.230 10.0.4.253 10.0.5.20 10.0.5.43 10.0.5.66 10.0.5.89 10.0.5.112 10.0.5.135 10.0.5.158 10.0.5.181 10.0.5.204 10.0.5.227 10.0.5.250 10.0.6.17 10.0.6.40 10.0.6.63 10.0.6.86 10.0.6.109 10.0.6.132 10.0.6.155 10.0.6.178 10.0.6.201 10.0.6.224 10.0.6.247 10.0.7.14 10.0.7.37 10.0.7.60 10.0.7.83 10.0.7.106 10.0.7.129 10.0.7.152 10.0.7.175 10.0.7.198 10.0.7.221 10.0.7.244 10.0.8.11 10.0.8.34 10.0.8.57 10.0.8.80 10.0.8.103 10.0.8.126 10.0.8.149 10.0.8.172 10.0.8.195 10.0.8.218 10.0.8.241"

################################################## 
#			Log Normal Shadowing
##################################################
[Config AODVRouting-LNS-25]
extends = AODVRouting-FS-25
**.pathLossType = "LogNormalShadowing"

[Config AODVRouting-LNS-50]
extends = AODVRouting-LNS-25
**.manager.launchConfig = xmldoc("8manhh50.launchd.xml")
**.node[*].app.destAddresses = "10.0.0.12 10.0.0.35 10.0.0.58 10.0.0.81 10.0.0.104 10.0.0.127 10.0.0.150 10.0.0.173 10.0.0.196 10.0.0.219 10.0.0.242 10.0.1.9 10.0.1.32 10.0.1.55 10.0.1.78 10.0.1.101 10.0.1.124 10.0.1.147 10.0.1.170 10.0.1.193 10.0.1.216 10.0.1.239 10.0.2.6 10.0.2.29 10.0.2.52 10.0.2.75 10.0.2.98 10.0.2.121 10.0.2.144 10.0.2.167 10.0.2.190 10.0.2.213 10.0.2.236 10.0.3.3 10.0.3.25 10.0.3.49 10.0.3.72 10.0.3.95 10.0.3.118 10.0.3.141 10.0.3.164 10.0.3.187 10.0.3.210 10.0.3.233 10.0.4.0 10.0.4.23 10.0.4.46 10.0.4.69 10.0.4.92. 10.0.4.115"

[Config AODVRouting-LNS-75]
extends = AODVRouting-LNS-25
**.manager.launchConfig = xmldoc("8manhh75.launchd.xml")
**.node[*].app.destAddresses = "10.0.0.12 10.0.0.35 10.0.0.58 10.0.0.81 10.0.0.104 10.0.0.127 10.0.0.150 10.0.0.173 10.0.0.196 10.0.0.219 10.0.0.242 10.0.1.9 10.0.1.32 10.0.1.55 10.0.1.78 10.0.1.101 10.0.1.124 10.0.1.147 10.0.1.170 10.0.1.193 10.0.1.216 10.0.1.239 10.0.2.6 10.0.2.29 10.0.2.52 10.0.2.75 10.0.2.98 10.0.2.121 10.0.2.144 10.0.2.167 10.0.2.190 10.0.2.213 10.0.2.236 10.0.3.3 10.0.3.26 10.0.3.49 10.0.3.72 10.0.3.95 10.0.3.118 10.0.3.141 10.0.3.164 10.0.3.187 10.0.3.210 10.0.3.233 10.0.4.0 10.0.4.23 10.0.4.46 10.0.4.69 10.0.4.92. 10.0.4.115 10.0.4.138 10.0.4.161 10.0.4.184 10.0.4.207 10.0.4.230 10.0.4.253 10.0.5.20 10.0.5.43 10.0.5.66 10.0.5.89 10.0.5.112 10.0.5.135 10.0.5.158 10.0.5.181 10.0.5.204 10.0.5.227 10.0.5.250 10.0.6.17 10.0.6.40 10.0.6.63 10.0.6.86 10.0.6.109 10.0.6.132 10.0.6.155 10.0.6.178"

[Config AODVRouting-LNS-100]
extends = AODVRouting-LNS-25
**.manager.launchConfig = xmldoc("8manhh100.launchd.xml")
**.node[*].app.destAddresses = "10.0.0.12 10.0.0.35 10.0.0.58 10.0.0.81 10.0.0.104 10.0.0.127 10.0.0.150 10.0.0.173 10.0.0.196 10.0.0.219 10.0.0.242 10.0.1.9 10.0.1.32 10.0.1.55 10.0.1.78 10.0.1.101 10.0.1.124 10.0.1.147 10.0.1.170 10.0.1.193 10.0.1.216 10.0.1.239 10.0.2.6 10.0.2.29 10.0.2.52 10.0.2.75 10.0.2.98 10.0.2.121 10.0.2.144 10.0.2.167 10.0.2.190 10.0.2.213 10.0.2.236 10.0.3.3 10.0.3.26 10.0.3.49 10.0.3.72 10.0.3.95 10.0.3.118 10.0.3.141 10.0.3.164 10.0.3.187 10.0.3.210 10.0.3.233 10.0.4.0 10.0.4.23 10.0.4.46 10.0.4.69 10.0.4.92. 10.0.4.115 10.0.4.138 10.0.4.161 10.0.4.184 10.0.4.207 10.0.4.230 10.0.4.253 10.0.5.20 10.0.5.43 10.0.5.66 10.0.5.89 10.0.5.112 10.0.5.135 10.0.5.158 10.0.5.181 10.0.5.204 10.0.5.227 10.0.5.250 10.0.6.17 10.0.6.40 10.0.6.63 10.0.6.86 10.0.6.109 10.0.6.132 10.0.6.155 10.0.6.178 10.0.6.201 10.0.6.224 10.0.6.247 10.0.7.14 10.0.7.37 10.0.7.60 10.0.7.83 10.0.7.106 10.0.7.129 10.0.7.152 10.0.7.175 10.0.7.198 10.0.7.221 10.0.7.244 10.0.8.11 10.0.8.34 10.0.8.57 10.0.8.80 10.0.8.103 10.0.8.126 10.0.8.149 10.0.8.172 10.0.8.195 10.0.8.218 10.0.8.241"

################################################## 
#				Two Ray-Ground
##################################################
[Config AODVRouting-TRG-25]
extends = AODVRouting-FS-25
**.pathLossType = "TwoRayGroundReflection"
**.transmitterAntennaHeight = 1.5m
**.receiverAntennaHeight = 1.5m

[Config AODVRouting-TRG-50]
extends = AODVRouting-TRG-25
**.manager.launchConfig = xmldoc("8manhh50.launchd.xml")
**.node[*].app.destAddresses = "10.0.0.12 10.0.0.35 10.0.0.58 10.0.0.81 10.0.0.104 10.0.0.127 10.0.0.150 10.0.0.173 10.0.0.196 10.0.0.219 10.0.0.242 10.0.1.9 10.0.1.32 10.0.1.55 10.0.1.78 10.0.1.101 10.0.1.124 10.0.1.147 10.0.1.170 10.0.1.193 10.0.1.216 10.0.1.239 10.0.2.6 10.0.2.29 10.0.2.52 10.0.2.75 10.0.2.98 10.0.2.121 10.0.2.144 10.0.2.167 10.0.2.190 10.0.2.213 10.0.2.236 10.0.3.3 10.0.3.25 10.0.3.49 10.0.3.72 10.0.3.95 10.0.3.118 10.0.3.141 10.0.3.164 10.0.3.187 10.0.3.210 10.0.3.233 10.0.4.0 10.0.4.23 10.0.4.46 10.0.4.69 10.0.4.92. 10.0.4.115"

[Config AODVRouting-TRG-75]
extends = AODVRouting-TRG-25
**.manager.launchConfig = xmldoc("8manhh75.launchd.xml")
**.node[*].app.destAddresses = "10.0.0.12 10.0.0.35 10.0.0.58 10.0.0.81 10.0.0.104 10.0.0.127 10.0.0.150 10.0.0.173 10.0.0.196 10.0.0.219 10.0.0.242 10.0.1.9 10.0.1.32 10.0.1.55 10.0.1.78 10.0.1.101 10.0.1.124 10.0.1.147 10.0.1.170 10.0.1.193 10.0.1.216 10.0.1.239 10.0.2.6 10.0.2.29 10.0.2.52 10.0.2.75 10.0.2.98 10.0.2.121 10.0.2.144 10.0.2.167 10.0.2.190 10.0.2.213 10.0.2.236 10.0.3.3 10.0.3.26 10.0.3.49 10.0.3.72 10.0.3.95 10.0.3.118 10.0.3.141 10.0.3.164 10.0.3.187 10.0.3.210 10.0.3.233 10.0.4.0 10.0.4.23 10.0.4.46 10.0.4.69 10.0.4.92. 10.0.4.115 10.0.4.138 10.0.4.161 10.0.4.184 10.0.4.207 10.0.4.230 10.0.4.253 10.0.5.20 10.0.5.43 10.0.5.66 10.0.5.89 10.0.5.112 10.0.5.135 10.0.5.158 10.0.5.181 10.0.5.204 10.0.5.227 10.0.5.250 10.0.6.17 10.0.6.40 10.0.6.63 10.0.6.86 10.0.6.109 10.0.6.132 10.0.6.155 10.0.6.178"

[Config AODVRouting-TRG-100]
extends = AODVRouting-TRG-25
**.manager.launchConfig = xmldoc("8manhh100.launchd.xml")
**.node[*].app.destAddresses = "10.0.0.12 10.0.0.35 10.0.0.58 10.0.0.81 10.0.0.104 10.0.0.127 10.0.0.150 10.0.0.173 10.0.0.196 10.0.0.219 10.0.0.242 10.0.1.9 10.0.1.32 10.0.1.55 10.0.1.78 10.0.1.101 10.0.1.124 10.0.1.147 10.0.1.170 10.0.1.193 10.0.1.216 10.0.1.239 10.0.2.6 10.0.2.29 10.0.2.52 10.0.2.75 10.0.2.98 10.0.2.121 10.0.2.144 10.0.2.167 10.0.2.190 10.0.2.213 10.0.2.236 10.0.3.3 10.0.3.26 10.0.3.49 10.0.3.72 10.0.3.95 10.0.3.118 10.0.3.141 10.0.3.164 10.0.3.187 10.0.3.210 10.0.3.233 10.0.4.0 10.0.4.23 10.0.4.46 10.0.4.69 10.0.4.92. 10.0.4.115 10.0.4.138 10.0.4.161 10.0.4.184 10.0.4.207 10.0.4.230 10.0.4.253 10.0.5.20 10.0.5.43 10.0.5.66 10.0.5.89 10.0.5.112 10.0.5.135 10.0.5.158 10.0.5.181 10.0.5.204 10.0.5.227 10.0.5.250 10.0.6.17 10.0.6.40 10.0.6.63 10.0.6.86 10.0.6.109 10.0.6.132 10.0.6.155 10.0.6.178 10.0.6.201 10.0.6.224 10.0.6.247 10.0.7.14 10.0.7.37 10.0.7.60 10.0.7.83 10.0.7.106 10.0.7.129 10.0.7.152 10.0.7.175 10.0.7.198 10.0.7.221 10.0.7.244 10.0.8.11 10.0.8.34 10.0.8.57 10.0.8.80 10.0.8.103 10.0.8.126 10.0.8.149 10.0.8.172 10.0.8.195 10.0.8.218 10.0.8.241"

################################################## 
#				Nakagami
##################################################
[Config AODVRouting-NAK-25]
extends = AODVRouting-FS-25
**.pathLossType = "NakagamiFading"

[Config AODVRouting-NAK-50]
extends = AODVRouting-NAK-25
**.manager.launchConfig = xmldoc("8manhh50.launchd.xml")
**.node[*].app.destAddresses = "10.0.0.12 10.0.0.35 10.0.0.58 10.0.0.81 10.0.0.104 10.0.0.127 10.0.0.150 10.0.0.173 10.0.0.196 10.0.0.219 10.0.0.242 10.0.1.9 10.0.1.32 10.0.1.55 10.0.1.78 10.0.1.101 10.0.1.124 10.0.1.147 10.0.1.170 10.0.1.193 10.0.1.216 10.0.1.239 10.0.2.6 10.0.2.29 10.0.2.52 10.0.2.75 10.0.2.98 10.0.2.121 10.0.2.144 10.0.2.167 10.0.2.190 10.0.2.213 10.0.2.236 10.0.3.3 10.0.3.25 10.0.3.49 10.0.3.72 10.0.3.95 10.0.3.118 10.0.3.141 10.0.3.164 10.0.3.187 10.0.3.210 10.0.3.233 10.0.4.0 10.0.4.23 10.0.4.46 10.0.4.69 10.0.4.92. 10.0.4.115"

[Config AODVRouting-NAK-75]
extends = AODVRouting-NAK-25
**.manager.launchConfig = xmldoc("8manhh75.launchd.xml")
**.node[*].app.destAddresses = "10.0.0.12 10.0.0.35 10.0.0.58 10.0.0.81 10.0.0.104 10.0.0.127 10.0.0.150 10.0.0.173 10.0.0.196 10.0.0.219 10.0.0.242 10.0.1.9 10.0.1.32 10.0.1.55 10.0.1.78 10.0.1.101 10.0.1.124 10.0.1.147 10.0.1.170 10.0.1.193 10.0.1.216 10.0.1.239 10.0.2.6 10.0.2.29 10.0.2.52 10.0.2.75 10.0.2.98 10.0.2.121 10.0.2.144 10.0.2.167 10.0.2.190 10.0.2.213 10.0.2.236 10.0.3.3 10.0.3.26 10.0.3.49 10.0.3.72 10.0.3.95 10.0.3.118 10.0.3.141 10.0.3.164 10.0.3.187 10.0.3.210 10.0.3.233 10.0.4.0 10.0.4.23 10.0.4.46 10.0.4.69 10.0.4.92. 10.0.4.115 10.0.4.138 10.0.4.161 10.0.4.184 10.0.4.207 10.0.4.230 10.0.4.253 10.0.5.20 10.0.5.43 10.0.5.66 10.0.5.89 10.0.5.112 10.0.5.135 10.0.5.158 10.0.5.181 10.0.5.204 10.0.5.227 10.0.5.250 10.0.6.17 10.0.6.40 10.0.6.63 10.0.6.86 10.0.6.109 10.0.6.132 10.0.6.155 10.0.6.178"

[Config AODVRouting-NAK-100]
extends = AODVRouting-NAK-25
**.manager.launchConfig = xmldoc("8manhh100.launchd.xml")
**.node[*].app.destAddresses = "10.0.0.12 10.0.0.35 10.0.0.58 10.0.0.81 10.0.0.104 10.0.0.127 10.0.0.150 10.0.0.173 10.0.0.196 10.0.0.219 10.0.0.242 10.0.1.9 10.0.1.32 10.0.1.55 10.0.1.78 10.0.1.101 10.0.1.124 10.0.1.147 10.0.1.170 10.0.1.193 10.0.1.216 10.0.1.239 10.0.2.6 10.0.2.29 10.0.2.52 10.0.2.75 10.0.2.98 10.0.2.121 10.0.2.144 10.0.2.167 10.0.2.190 10.0.2.213 10.0.2.236 10.0.3.3 10.0.3.26 10.0.3.49 10.0.3.72 10.0.3.95 10.0.3.118 10.0.3.141 10.0.3.164 10.0.3.187 10.0.3.210 10.0.3.233 10.0.4.0 10.0.4.23 10.0.4.46 10.0.4.69 10.0.4.92. 10.0.4.115 10.0.4.138 10.0.4.161 10.0.4.184 10.0.4.207 10.0.4.230 10.0.4.253 10.0.5.20 10.0.5.43 10.0.5.66 10.0.5.89 10.0.5.112 10.0.5.135 10.0.5.158 10.0.5.181 10.0.5.204 10.0.5.227 10.0.5.250 10.0.6.17 10.0.6.40 10.0.6.63 10.0.6.86 10.0.6.109 10.0.6.132 10.0.6.155 10.0.6.178 10.0.6.201 10.0.6.224 10.0.6.247 10.0.7.14 10.0.7.37 10.0.7.60 10.0.7.83 10.0.7.106 10.0.7.129 10.0.7.152 10.0.7.175 10.0.7.198 10.0.7.221 10.0.7.244 10.0.8.11 10.0.8.34 10.0.8.57 10.0.8.80 10.0.8.103 10.0.8.126 10.0.8.149 10.0.8.172 10.0.8.195 10.0.8.218 10.0.8.241"
