[General]
network = Prj_Part1_propag.scenarioPRJP1
debug-on-errors = true
print-undisposed = false

tkenv-plugin-path = ../../../etc/plugins

cmdenv-express-mode = true
cmdenv-autoflush = true
cmdenv-status-frequency = 10000000s

**.scalar-recording = true
**.vector-recording = true

**.debug = false
**.coreDebug = false

sim-time-limit = 1900s
repeat = 26
num-rngs=2
seed-1-mt= 345434  #345434

#####################################
# TraCIScenarioManager parameters   #
#####################################
**.manager.updateInterval = 0.1s
**.manager.host = "localhost"
**.manager.port = 9999
**.manager.moduleType = "Prj_Part1_propag.AODV.carAODV"
**.manager.moduleName = "node"
**.manager.moduleDisplayString = ""
**.manager.autoShutdown = true
**.manager.margin = 25

#####################################
#           WaveAppLayer            #
#####################################
**.node[*].app.chooseDestAddrMode = "perSend"
**.node[*].app.localPort = 1234
**.node[*].app.destPort = 1234
**.node[*].app.startTime = 30s
**.node[*].app.stopTime = 1800s
**.node[*].app.messageLength = 512B
**.node[*].app.burstDuration = 2s
**.node[*].app.sleepDuration = 1s
**.node[*].app.sendInterval = 0.25s + uniform(-0.001s,0.001s,1)
**.node[*].app.delayLimit = 20s
**.node[*].app.destAddrRNG = 1

#####################################
#            ip settings            #
#####################################
**.ip.procDelay = 1us

#####################################
#           NIC settings            #
#####################################
**.radioMedium.mediumLimitCache.carrierFrequency = 6GHz

*.*.wlan[*].opMode = "p"
*.*.wlan[*].bitrate = 6Mbps

*.*.wlan[*].mgmtType = "Ieee80211MgmtAdhoc"

*.*.wlan[*].mac.EDCA = true
*.*.wlan[*].mac.basicBitrate = 3Mbps
*.*.wlan[*].mac.controlBitrate = 3Mbps

*.*.wlan[*].radio.bandName = "5.9 GHz"
*.*.wlan[*].radio.carrierFrequency = 5.890GHz
*.*.wlan[*].radio.bandwidth = 10MHz
*.*.wlan[*].radio.transmitter.power = 20mW
*.*.wlan[*].radio.channelNumber = 3

#**.wlan.mac.slotTime = 9us ### 
#**.wlan.mac.AIFSN = 7 ####
#**.wlan.mac.slotTime = 13us ####
#**.wlan.mac.rtsThresholdBytes = 3000B
#**.wlan[*].mac.retryLimit = 3
**.wlan[*].mac.cwMinData = 15
**.wlan[*].mac.cwMaxData = 1023

####################################################################################################################
####################                         [Config AODV-Routing]                              #################### 
####################################################################################################################
[Config AODVRouting-FS-25n]
**.pathLossType = "FreeSpacePathLoss"
**.manager.launchConfig = xmldoc("8manhh25.launchd.xml")
**.node[*].app.destAddresses = "10.0.0.12 10.0.0.37 10.0.0.62 10.0.0.87 10.0.0.112 10.0.0.137 10.0.0.162 10.0.0.187 10.0.0.212 10.0.0.237 10.0.1.6 10.0.1.31 10.0.1.56 10.0.1.81 10.0.1.106 10.0.1.131 10.0.1.156 10.0.1.181 10.0.1.206 10.0.1.231 10.0.2.0 10.0.2.25 10.0.2.50 10.0.2.75 10.0.2.100" ##moduleListByPath("**.node[*]")

**.networkLayer.proxyARP = false

**.aodv.askGratuitousRREP = true
**.aodv.useHelloMessages = true
**.aodv.netDiameter = 150
**.aodv.activeRouteTimeout = 1s

[Config AODVRouting-FS-50n]
extends = AODVRouting-FS-25n
**.manager.launchConfig = xmldoc("8manhh50.launchd.xml")
**.node[*].app.destAddresses = "10.0.0.12 10.0.0.37 10.0.0.62 10.0.0.87 10.0.0.112 10.0.0.137 10.0.0.162 10.0.0.187 10.0.0.212 10.0.0.237 10.0.1.6 10.0.1.31 10.0.1.56 10.0.1.81 10.0.1.106 10.0.1.131 10.0.1.156 10.0.1.181 10.0.1.206 10.0.1.231 10.0.2.0 10.0.2.25 10.0.2.50 10.0.2.75 10.0.2.100 10.0.2.125 10.0.2.150 10.0.2.175 10.0.2.200 10.0.2.225 10.0.2.250 10.0.3.19 10.0.3.44 10.0.3.69 10.0.3.94 10.0.3.119 10.0.3.144 10.0.3.169 10.0.3.194 10.0.3.219 10.0.3.244 10.0.4.13 10.0.4.38 10.0.4.63 10.0.4.88 10.0.4.113 10.0.4.138 10.0.4.163 10.0.4.188 10.0.4.213"

[Config AODVRouting-FS-75n]
extends = AODVRouting-FS-25n
**.manager.launchConfig = xmldoc("8manhh75.launchd.xml")
**.node[*].app.destAddresses = "10.0.0.12 10.0.0.37 10.0.0.62 10.0.0.87 10.0.0.112 10.0.0.137 10.0.0.162 10.0.0.187 10.0.0.212 10.0.0.237 10.0.1.6 10.0.1.31 10.0.1.56 10.0.1.81 10.0.1.106 10.0.1.131 10.0.1.156 10.0.1.181 10.0.1.206 10.0.1.231 10.0.2.0 10.0.2.25 10.0.2.50 10.0.2.75 10.0.2.100 10.0.2.125 10.0.2.150 10.0.2.175 10.0.2.200 10.0.2.225 10.0.2.250 10.0.3.19 10.0.3.44 10.0.3.69 10.0.3.94 10.0.3.119 10.0.3.144 10.0.3.169 10.0.3.194 10.0.3.219 10.0.3.244 10.0.4.13 10.0.4.38 10.0.4.63 10.0.4.88 10.0.4.113 10.0.4.138 10.0.4.163 10.0.4.188 10.0.4.213 10.0.4.238 10.0.5.7 10.0.5.32 10.0.5.57 10.0.5.82 10.0.5.107 10.0.5.132 10.0.5.157 10.0.5.182 10.0.5.207 10.0.5.232 10.0.6.1 10.0.6.26 10.0.6.51 10.0.6.76 10.0.6.101 10.0.6.126 10.0.6.151 10.0.6.176 10.0.6.201 10.0.6.226 10.0.6.251 10.0.7.20 10.0.7.45 10.0.7.70"

[Config AODVRouting-FS-100n]
extends = AODVRouting-FS-25n
**.manager.launchConfig = xmldoc("8manhh100.launchd.xml")
**.node[*].app.destAddresses = "10.0.0.12 10.0.0.37 10.0.0.62 10.0.0.87 10.0.0.112 10.0.0.137 10.0.0.162 10.0.0.187 10.0.0.212 10.0.0.237 10.0.1.6 10.0.1.31 10.0.1.56 10.0.1.81 10.0.1.106 10.0.1.131 10.0.1.156 10.0.1.181 10.0.1.206 10.0.1.231 10.0.2.0 10.0.2.25 10.0.2.50 10.0.2.75 10.0.2.100 10.0.2.125 10.0.2.150 10.0.2.175 10.0.2.200 10.0.2.225 10.0.2.250 10.0.3.19 10.0.3.44 10.0.3.69 10.0.3.94 10.0.3.119 10.0.3.144 10.0.3.169 10.0.3.194 10.0.3.219 10.0.3.244 10.0.4.13 10.0.4.38 10.0.4.63 10.0.4.88 10.0.4.113 10.0.4.138 10.0.4.163 10.0.4.188 10.0.4.213 10.0.4.238 10.0.5.7 10.0.5.32 10.0.5.57 10.0.5.82 10.0.5.107 10.0.5.132 10.0.5.157 10.0.5.182 10.0.5.207 10.0.5.232 10.0.6.1 10.0.6.26 10.0.6.51 10.0.6.76 10.0.6.101 10.0.6.126 10.0.6.151 10.0.6.176 10.0.6.201 10.0.6.226 10.0.6.251 10.0.7.20 10.0.7.45 10.0.7.70 10.0.7.95 10.0.7.120 10.0.7.145 10.0.7.170 10.0.7.195 10.0.7.220 10.0.7.245 10.0.8.14 10.0.8.39 10.0.8.64 10.0.8.89 10.0.8.114 10.0.8.139 10.0.8.164 10.0.8.189 10.0.8.214 10.0.8.239 10.0.9.8 10.0.9.33 10.0.9.58 10.0.9.83 10.0.9.108 10.0.9.133 10.0.9.158 10.0.9.183"

################################################## 
#			Log Normal Shadowing
##################################################
[Config AODVRouting-LNS-25n]
extends = AODVRouting-FS-25n
**.pathLossType = "LogNormalShadowing"

[Config AODVRouting-LNS-50n]
extends = AODVRouting-LNS-25n
**.manager.launchConfig = xmldoc("8manhh50.launchd.xml")
**.node[*].app.destAddresses = "10.0.0.12 10.0.0.37 10.0.0.62 10.0.0.87 10.0.0.112 10.0.0.137 10.0.0.162 10.0.0.187 10.0.0.212 10.0.0.237 10.0.1.6 10.0.1.31 10.0.1.56 10.0.1.81 10.0.1.106 10.0.1.131 10.0.1.156 10.0.1.181 10.0.1.206 10.0.1.231 10.0.2.0 10.0.2.25 10.0.2.50 10.0.2.75 10.0.2.100 10.0.2.125 10.0.2.150 10.0.2.175 10.0.2.200 10.0.2.225 10.0.2.250 10.0.3.19 10.0.3.44 10.0.3.69 10.0.3.94 10.0.3.119 10.0.3.144 10.0.3.169 10.0.3.194 10.0.3.219 10.0.3.244 10.0.4.13 10.0.4.38 10.0.4.63 10.0.4.88 10.0.4.113 10.0.4.138 10.0.4.163 10.0.4.188 10.0.4.213"

[Config AODVRouting-LNS-75n]
extends = AODVRouting-LNS-25n
**.manager.launchConfig = xmldoc("8manhh75.launchd.xml")
**.node[*].app.destAddresses = "10.0.0.12 10.0.0.37 10.0.0.62 10.0.0.87 10.0.0.112 10.0.0.137 10.0.0.162 10.0.0.187 10.0.0.212 10.0.0.237 10.0.1.6 10.0.1.31 10.0.1.56 10.0.1.81 10.0.1.106 10.0.1.131 10.0.1.156 10.0.1.181 10.0.1.206 10.0.1.231 10.0.2.0 10.0.2.25 10.0.2.50 10.0.2.75 10.0.2.100 10.0.2.125 10.0.2.150 10.0.2.175 10.0.2.200 10.0.2.225 10.0.2.250 10.0.3.19 10.0.3.44 10.0.3.69 10.0.3.94 10.0.3.119 10.0.3.144 10.0.3.169 10.0.3.194 10.0.3.219 10.0.3.244 10.0.4.13 10.0.4.38 10.0.4.63 10.0.4.88 10.0.4.113 10.0.4.138 10.0.4.163 10.0.4.188 10.0.4.213 10.0.4.238 10.0.5.7 10.0.5.32 10.0.5.57 10.0.5.82 10.0.5.107 10.0.5.132 10.0.5.157 10.0.5.182 10.0.5.207 10.0.5.232 10.0.6.1 10.0.6.26 10.0.6.51 10.0.6.76 10.0.6.101 10.0.6.126 10.0.6.151 10.0.6.176 10.0.6.201 10.0.6.226 10.0.6.251 10.0.7.20 10.0.7.45 10.0.7.70"

[Config AODVRouting-LNS-100n]
extends = AODVRouting-LNS-25n
**.manager.launchConfig = xmldoc("8manhh100.launchd.xml")
**.node[*].app.destAddresses = "10.0.0.12 10.0.0.37 10.0.0.62 10.0.0.87 10.0.0.112 10.0.0.137 10.0.0.162 10.0.0.187 10.0.0.212 10.0.0.237 10.0.1.6 10.0.1.31 10.0.1.56 10.0.1.81 10.0.1.106 10.0.1.131 10.0.1.156 10.0.1.181 10.0.1.206 10.0.1.231 10.0.2.0 10.0.2.25 10.0.2.50 10.0.2.75 10.0.2.100 10.0.2.125 10.0.2.150 10.0.2.175 10.0.2.200 10.0.2.225 10.0.2.250 10.0.3.19 10.0.3.44 10.0.3.69 10.0.3.94 10.0.3.119 10.0.3.144 10.0.3.169 10.0.3.194 10.0.3.219 10.0.3.244 10.0.4.13 10.0.4.38 10.0.4.63 10.0.4.88 10.0.4.113 10.0.4.138 10.0.4.163 10.0.4.188 10.0.4.213 10.0.4.238 10.0.5.7 10.0.5.32 10.0.5.57 10.0.5.82 10.0.5.107 10.0.5.132 10.0.5.157 10.0.5.182 10.0.5.207 10.0.5.232 10.0.6.1 10.0.6.26 10.0.6.51 10.0.6.76 10.0.6.101 10.0.6.126 10.0.6.151 10.0.6.176 10.0.6.201 10.0.6.226 10.0.6.251 10.0.7.20 10.0.7.45 10.0.7.70 10.0.7.95 10.0.7.120 10.0.7.145 10.0.7.170 10.0.7.195 10.0.7.220 10.0.7.245 10.0.8.14 10.0.8.39 10.0.8.64 10.0.8.89 10.0.8.114 10.0.8.139 10.0.8.164 10.0.8.189 10.0.8.214 10.0.8.239 10.0.9.8 10.0.9.33 10.0.9.58 10.0.9.83 10.0.9.108 10.0.9.133 10.0.9.158 10.0.9.183"

################################################## 
#				Two Ray-Ground
##################################################
[Config AODVRouting-TRG-25n]
extends = AODVRouting-FS-25n
**.pathLossType = "TwoRayGroundReflection"
**.transmitterAntennaHeight = 1.5m
**.receiverAntennaHeight = 1.5m

[Config AODVRouting-TRG-50n]
extends = AODVRouting-TRG-25n
**.manager.launchConfig = xmldoc("8manhh50.launchd.xml")
**.node[*].app.destAddresses = "10.0.0.12 10.0.0.37 10.0.0.62 10.0.0.87 10.0.0.112 10.0.0.137 10.0.0.162 10.0.0.187 10.0.0.212 10.0.0.237 10.0.1.6 10.0.1.31 10.0.1.56 10.0.1.81 10.0.1.106 10.0.1.131 10.0.1.156 10.0.1.181 10.0.1.206 10.0.1.231 10.0.2.0 10.0.2.25 10.0.2.50 10.0.2.75 10.0.2.100 10.0.2.125 10.0.2.150 10.0.2.175 10.0.2.200 10.0.2.225 10.0.2.250 10.0.3.19 10.0.3.44 10.0.3.69 10.0.3.94 10.0.3.119 10.0.3.144 10.0.3.169 10.0.3.194 10.0.3.219 10.0.3.244 10.0.4.13 10.0.4.38 10.0.4.63 10.0.4.88 10.0.4.113 10.0.4.138 10.0.4.163 10.0.4.188 10.0.4.213"

[Config AODVRouting-TRG-75n]
extends = AODVRouting-TRG-25n
**.manager.launchConfig = xmldoc("8manhh75.launchd.xml")
**.node[*].app.destAddresses = "10.0.0.12 10.0.0.37 10.0.0.62 10.0.0.87 10.0.0.112 10.0.0.137 10.0.0.162 10.0.0.187 10.0.0.212 10.0.0.237 10.0.1.6 10.0.1.31 10.0.1.56 10.0.1.81 10.0.1.106 10.0.1.131 10.0.1.156 10.0.1.181 10.0.1.206 10.0.1.231 10.0.2.0 10.0.2.25 10.0.2.50 10.0.2.75 10.0.2.100 10.0.2.125 10.0.2.150 10.0.2.175 10.0.2.200 10.0.2.225 10.0.2.250 10.0.3.19 10.0.3.44 10.0.3.69 10.0.3.94 10.0.3.119 10.0.3.144 10.0.3.169 10.0.3.194 10.0.3.219 10.0.3.244 10.0.4.13 10.0.4.38 10.0.4.63 10.0.4.88 10.0.4.113 10.0.4.138 10.0.4.163 10.0.4.188 10.0.4.213 10.0.4.238 10.0.5.7 10.0.5.32 10.0.5.57 10.0.5.82 10.0.5.107 10.0.5.132 10.0.5.157 10.0.5.182 10.0.5.207 10.0.5.232 10.0.6.1 10.0.6.26 10.0.6.51 10.0.6.76 10.0.6.101 10.0.6.126 10.0.6.151 10.0.6.176 10.0.6.201 10.0.6.226 10.0.6.251 10.0.7.20 10.0.7.45 10.0.7.70"

[Config AODVRouting-TRG-100n]
extends = AODVRouting-TRG-25n
**.manager.launchConfig = xmldoc("8manhh100.launchd.xml")
**.node[*].app.destAddresses = "10.0.0.12 10.0.0.37 10.0.0.62 10.0.0.87 10.0.0.112 10.0.0.137 10.0.0.162 10.0.0.187 10.0.0.212 10.0.0.237 10.0.1.6 10.0.1.31 10.0.1.56 10.0.1.81 10.0.1.106 10.0.1.131 10.0.1.156 10.0.1.181 10.0.1.206 10.0.1.231 10.0.2.0 10.0.2.25 10.0.2.50 10.0.2.75 10.0.2.100 10.0.2.125 10.0.2.150 10.0.2.175 10.0.2.200 10.0.2.225 10.0.2.250 10.0.3.19 10.0.3.44 10.0.3.69 10.0.3.94 10.0.3.119 10.0.3.144 10.0.3.169 10.0.3.194 10.0.3.219 10.0.3.244 10.0.4.13 10.0.4.38 10.0.4.63 10.0.4.88 10.0.4.113 10.0.4.138 10.0.4.163 10.0.4.188 10.0.4.213 10.0.4.238 10.0.5.7 10.0.5.32 10.0.5.57 10.0.5.82 10.0.5.107 10.0.5.132 10.0.5.157 10.0.5.182 10.0.5.207 10.0.5.232 10.0.6.1 10.0.6.26 10.0.6.51 10.0.6.76 10.0.6.101 10.0.6.126 10.0.6.151 10.0.6.176 10.0.6.201 10.0.6.226 10.0.6.251 10.0.7.20 10.0.7.45 10.0.7.70 10.0.7.95 10.0.7.120 10.0.7.145 10.0.7.170 10.0.7.195 10.0.7.220 10.0.7.245 10.0.8.14 10.0.8.39 10.0.8.64 10.0.8.89 10.0.8.114 10.0.8.139 10.0.8.164 10.0.8.189 10.0.8.214 10.0.8.239 10.0.9.8 10.0.9.33 10.0.9.58 10.0.9.83 10.0.9.108 10.0.9.133 10.0.9.158 10.0.9.183"

################################################## 
#				Nakagami
##################################################
[Config AODVRouting-NAK-25n]
extends = AODVRouting-FS-25n
**.pathLossType = "NakagamiFading"

[Config AODVRouting-NAK-50n]
extends = AODVRouting-NAK-25n
**.manager.launchConfig = xmldoc("8manhh50.launchd.xml")
**.node[*].app.destAddresses = "10.0.0.12 10.0.0.37 10.0.0.62 10.0.0.87 10.0.0.112 10.0.0.137 10.0.0.162 10.0.0.187 10.0.0.212 10.0.0.237 10.0.1.6 10.0.1.31 10.0.1.56 10.0.1.81 10.0.1.106 10.0.1.131 10.0.1.156 10.0.1.181 10.0.1.206 10.0.1.231 10.0.2.0 10.0.2.25 10.0.2.50 10.0.2.75 10.0.2.100 10.0.2.125 10.0.2.150 10.0.2.175 10.0.2.200 10.0.2.225 10.0.2.250 10.0.3.19 10.0.3.44 10.0.3.69 10.0.3.94 10.0.3.119 10.0.3.144 10.0.3.169 10.0.3.194 10.0.3.219 10.0.3.244 10.0.4.13 10.0.4.38 10.0.4.63 10.0.4.88 10.0.4.113 10.0.4.138 10.0.4.163 10.0.4.188 10.0.4.213"

[Config AODVRouting-NAK-75n]
extends = AODVRouting-NAK-25n
**.manager.launchConfig = xmldoc("8manhh75.launchd.xml")
**.node[*].app.destAddresses = "10.0.0.12 10.0.0.37 10.0.0.62 10.0.0.87 10.0.0.112 10.0.0.137 10.0.0.162 10.0.0.187 10.0.0.212 10.0.0.237 10.0.1.6 10.0.1.31 10.0.1.56 10.0.1.81 10.0.1.106 10.0.1.131 10.0.1.156 10.0.1.181 10.0.1.206 10.0.1.231 10.0.2.0 10.0.2.25 10.0.2.50 10.0.2.75 10.0.2.100 10.0.2.125 10.0.2.150 10.0.2.175 10.0.2.200 10.0.2.225 10.0.2.250 10.0.3.19 10.0.3.44 10.0.3.69 10.0.3.94 10.0.3.119 10.0.3.144 10.0.3.169 10.0.3.194 10.0.3.219 10.0.3.244 10.0.4.13 10.0.4.38 10.0.4.63 10.0.4.88 10.0.4.113 10.0.4.138 10.0.4.163 10.0.4.188 10.0.4.213 10.0.4.238 10.0.5.7 10.0.5.32 10.0.5.57 10.0.5.82 10.0.5.107 10.0.5.132 10.0.5.157 10.0.5.182 10.0.5.207 10.0.5.232 10.0.6.1 10.0.6.26 10.0.6.51 10.0.6.76 10.0.6.101 10.0.6.126 10.0.6.151 10.0.6.176 10.0.6.201 10.0.6.226 10.0.6.251 10.0.7.20 10.0.7.45 10.0.7.70"

[Config AODVRouting-NAK-100n]
extends = AODVRouting-NAK-25n
**.manager.launchConfig = xmldoc("8manhh100.launchd.xml")
**.node[*].app.destAddresses = "10.0.0.12 10.0.0.37 10.0.0.62 10.0.0.87 10.0.0.112 10.0.0.137 10.0.0.162 10.0.0.187 10.0.0.212 10.0.0.237 10.0.1.6 10.0.1.31 10.0.1.56 10.0.1.81 10.0.1.106 10.0.1.131 10.0.1.156 10.0.1.181 10.0.1.206 10.0.1.231 10.0.2.0 10.0.2.25 10.0.2.50 10.0.2.75 10.0.2.100 10.0.2.125 10.0.2.150 10.0.2.175 10.0.2.200 10.0.2.225 10.0.2.250 10.0.3.19 10.0.3.44 10.0.3.69 10.0.3.94 10.0.3.119 10.0.3.144 10.0.3.169 10.0.3.194 10.0.3.219 10.0.3.244 10.0.4.13 10.0.4.38 10.0.4.63 10.0.4.88 10.0.4.113 10.0.4.138 10.0.4.163 10.0.4.188 10.0.4.213 10.0.4.238 10.0.5.7 10.0.5.32 10.0.5.57 10.0.5.82 10.0.5.107 10.0.5.132 10.0.5.157 10.0.5.182 10.0.5.207 10.0.5.232 10.0.6.1 10.0.6.26 10.0.6.51 10.0.6.76 10.0.6.101 10.0.6.126 10.0.6.151 10.0.6.176 10.0.6.201 10.0.6.226 10.0.6.251 10.0.7.20 10.0.7.45 10.0.7.70 10.0.7.95 10.0.7.120 10.0.7.145 10.0.7.170 10.0.7.195 10.0.7.220 10.0.7.245 10.0.8.14 10.0.8.39 10.0.8.64 10.0.8.89 10.0.8.114 10.0.8.139 10.0.8.164 10.0.8.189 10.0.8.214 10.0.8.239 10.0.9.8 10.0.9.33 10.0.9.58 10.0.9.83 10.0.9.108 10.0.9.133 10.0.9.158 10.0.9.183"
