<?xml version="1.0" encoding="UTF-8"?>

<!-- generated on Tue Oct  6 18:59:46 2015 by SUMO polyconvert Version 0.22.0
<?xml version="1.0" encoding="UTF-8"?>

<configuration xmlns:xsi="http://www.w3.org/2001/XMLSchema-instance" xsi:noNamespaceSchemaLocation="http://sumo.dlr.de/xsd/polyconvertConfiguration.xsd">

    <input>
        <net-file value="4curitiba4.net.xml"/>
        <osm-files value="0curitiba4.osm"/>
        <type-file value="/home/william/Simulators/sumo-0.22.0/data/typemap/osmPolyconvert.typ.xml"/>
    </input>

    <output>
        <output-file value="5curitiba4.poly.xml"/>
    </output>

</configuration>
-->

<additional xmlns:xsi="http://www.w3.org/2001/XMLSchema-instance" xsi:noNamespaceSchemaLocation="http://sumo.dlr.de/xsd/additional_file.xsd">
    <poly id="122710015" type="amenity" color="237,199,199" fill="1" layer="-1.00" shape="3931.66,2665.51 3915.16,2703.83 3865.95,2683.80 3883.63,2645.20 3931.66,2665.51"/>
    <poly id="122730585" type="building" color="255,230,230" fill="1" layer="-1.00" shape="3075.59,2696.16 3112.23,2713.57 3130.33,2675.91 3093.68,2658.51 3075.59,2696.16"/>
    <poly id="126500711" type="building" color="255,230,230" fill="1" layer="-1.00" shape="2453.16,1910.38 2468.76,1916.56 2482.10,1884.06 2492.74,1858.13 2475.99,1851.32 2453.16,1910.38"/>
    <poly id="127724380" type="building" color="255,230,230" fill="1" layer="-1.00" shape="3083.60,1669.74 3090.12,1654.05 3069.50,1645.20 3063.26,1661.52 3083.60,1669.74"/>
    <poly id="127724381" type="building" color="255,230,230" fill="1" layer="-1.00" shape="3173.75,1684.71 3196.34,1694.07 3210.36,1660.60 3187.76,1651.24 3173.75,1684.71"/>
    <poly id="127742936" type="amenity" color="237,199,199" fill="1" layer="-1.00" shape="2867.64,1615.95 2874.33,1599.01 2875.29,1599.35 2894.82,1606.97 2887.77,1623.94 2867.64,1615.95"/>
    <poly id="127742936#1" type="building" color="255,230,230" fill="1" layer="-1.00" shape="2867.64,1615.95 2874.33,1599.01 2875.29,1599.35 2894.82,1606.97 2887.77,1623.94 2867.64,1615.95"/>
    <poly id="127742937" type="amenity" color="237,199,199" fill="1" layer="-1.00" shape="2899.13,1600.68 2911.36,1572.15 2914.85,1570.76 2944.45,1582.51 2951.34,1566.47 2947.69,1564.97 2950.14,1559.12 2942.01,1555.52 2939.54,1560.52 2925.71,1554.79 2926.53,1552.92 2920.52,1550.30 2919.47,1552.72 2914.04,1550.38 2908.38,1550.72 2901.94,1553.48 2898.76,1557.01 2896.66,1561.87 2894.22,1560.83 2891.24,1567.92 2894.06,1569.15 2887.77,1584.27 2882.08,1581.93 2878.95,1590.01 2884.37,1592.35 2883.32,1594.78 2899.13,1600.68"/>
    <poly id="127742937#1" type="building" color="255,230,230" fill="1" layer="-1.00" shape="2899.13,1600.68 2911.36,1572.15 2914.85,1570.76 2944.45,1582.51 2951.34,1566.47 2947.69,1564.97 2950.14,1559.12 2942.01,1555.52 2939.54,1560.52 2925.71,1554.79 2926.53,1552.92 2920.52,1550.30 2919.47,1552.72 2914.04,1550.38 2908.38,1550.72 2901.94,1553.48 2898.76,1557.01 2896.66,1561.87 2894.22,1560.83 2891.24,1567.92 2894.06,1569.15 2887.77,1584.27 2882.08,1581.93 2878.95,1590.01 2884.37,1592.35 2883.32,1594.78 2899.13,1600.68"/>
    <poly id="127742939" type="building" color="255,230,230" fill="1" layer="-1.00" shape="2894.22,1626.44 2904.20,1602.57 2899.13,1600.68 2883.32,1594.78 2884.37,1592.35 2878.95,1590.01 2875.29,1599.35 2894.82,1606.97 2887.77,1623.94 2894.22,1626.44"/>
    <poly id="127742941" type="building" color="255,230,230" fill="1" layer="-1.00" shape="2909.12,1586.67 2914.70,1573.79 2942.93,1585.17 2937.06,1597.84 2909.12,1586.67"/>
    <poly id="127742943" type="building" color="255,230,230" fill="1" layer="-1.00" shape="2879.04,1646.85 2884.57,1649.24 2891.22,1633.68 2894.22,1626.44 2887.77,1623.94 2867.64,1615.95 2864.02,1625.09 2869.71,1627.43 2870.77,1624.74 2885.68,1630.45 2879.04,1646.85"/>
    <poly id="127742944" type="building" color="255,230,230" fill="1" layer="-1.00" shape="2891.22,1633.68 2916.07,1644.00 2934.91,1601.29 2909.09,1590.61 2904.20,1602.57 2891.22,1633.68"/>
    <poly id="127742947" type="amenity" color="237,199,199" fill="1" layer="-1.00" shape="2898.31,1702.56 2899.20,1700.43 2900.83,1696.52 2907.12,1682.23 2872.68,1668.18 2871.82,1664.70 2879.04,1646.85 2885.68,1630.45 2870.77,1624.74 2869.71,1627.43 2864.02,1625.09 2859.53,1636.47 2863.92,1638.24 2858.18,1653.30 2855.35,1652.19 2852.69,1659.14 2855.49,1660.20 2853.48,1665.47 2854.36,1670.84 2859.62,1681.50 2865.59,1684.04 2864.55,1686.54 2870.51,1688.87 2871.99,1685.52 2888.37,1691.85 2886.01,1697.52 2898.31,1702.56"/>
    <poly id="127742947#1" type="building" color="255,230,230" fill="1" layer="-1.00" shape="2898.31,1702.56 2899.20,1700.43 2900.83,1696.52 2907.12,1682.23 2872.68,1668.18 2871.82,1664.70 2879.04,1646.85 2885.68,1630.45 2870.77,1624.74 2869.71,1627.43 2864.02,1625.09 2859.53,1636.47 2863.92,1638.24 2858.18,1653.30 2855.35,1652.19 2852.69,1659.14 2855.49,1660.20 2853.48,1665.47 2854.36,1670.84 2859.62,1681.50 2865.59,1684.04 2864.55,1686.54 2870.51,1688.87 2871.99,1685.52 2888.37,1691.85 2886.01,1697.52 2898.31,1702.56"/>
    <poly id="127743418" type="building" color="255,230,230" fill="1" layer="-1.00" shape="2907.12,1682.23 2913.65,1665.24 2972.77,1688.62 2970.09,1695.06 2966.69,1703.27 2965.64,1705.77 2939.13,1695.23 2931.55,1713.84 2899.20,1700.43 2900.83,1696.52 2907.12,1682.23"/>
    <poly id="127743419" type="building" color="255,230,230" fill="1" layer="-1.00" shape="2989.96,1702.89 2997.21,1705.62 3010.61,1673.88 2983.57,1662.56 2972.77,1688.62 2970.09,1695.06 2989.96,1702.89"/>
    <poly id="127743421" type="amenity" color="237,199,199" fill="1" layer="-1.00" shape="2917.86,1647.07 2906.06,1641.98 2898.02,1661.32 2910.13,1666.37 2917.86,1647.07"/>
    <poly id="127743421#1" type="building" color="255,230,230" fill="1" layer="-1.00" shape="2917.86,1647.07 2906.06,1641.98 2898.02,1661.32 2910.13,1666.37 2917.86,1647.07"/>
    <poly id="127743422" type="building" color="255,230,230" fill="1" layer="-1.00" shape="2915.14,1660.54 2940.32,1599.95 2951.81,1604.37 2940.85,1631.88 2944.26,1633.44 2955.40,1605.96 2966.63,1610.61 2955.49,1638.00 2959.02,1639.43 2969.98,1611.94 2994.57,1621.52 2969.46,1683.02 2944.50,1672.35 2955.50,1646.45 2951.97,1645.15 2941.16,1671.08 2930.13,1666.63 2941.35,1640.33 2937.45,1638.90 2926.60,1665.33 2915.14,1660.54"/>
    <poly id="127743423" type="building" color="255,230,230" fill="1" layer="-1.00" shape="2970.09,1695.06 2989.96,1702.89 2986.77,1711.13 2966.69,1703.27 2970.09,1695.06"/>
    <poly id="127743424" type="building" color="255,230,230" fill="1" layer="-1.00" shape="2973.80,1598.85 2949.09,1589.38 2959.28,1563.47 2983.97,1573.41 2973.80,1598.85"/>
    <poly id="127743425" type="building" color="255,230,230" fill="1" layer="-1.00" shape="2996.43,1578.29 2983.97,1573.41 2973.80,1598.85 2972.45,1601.95 2984.79,1607.03 2996.43,1578.29"/>
    <poly id="127743426" type="building" color="255,230,230" fill="1" layer="-1.00" shape="2960.79,1725.56 2964.24,1716.90 2960.16,1715.35 2956.78,1723.96 2931.55,1713.84 2939.13,1695.23 2965.64,1705.77 2992.01,1716.28 2984.70,1735.15 2974.52,1730.87 2977.80,1722.63 2973.46,1720.81 2969.98,1729.25 2960.79,1725.56"/>
    <poly id="127743427" type="building" color="255,230,230" fill="1" layer="-1.00" shape="2981.57,1661.29 2989.19,1643.32 3020.91,1656.88 3013.06,1674.95 3010.61,1673.88 2983.57,1662.56 2981.57,1661.29"/>
    <poly id="127744549" type="building" color="255,230,230" fill="1" layer="-1.00" shape="3316.71,2893.72 3323.09,2910.09 3350.10,2920.66 3359.02,2901.76 3368.69,2877.75 3375.98,2857.26 3362.42,2851.53 3355.33,2848.16 3347.73,2844.55 3330.66,2858.03 3340.96,2862.01 3325.78,2898.17 3316.71,2893.72"/>
    <poly id="127744550" type="building" color="255,230,230" fill="1" layer="-1.00" shape="3357.30,2873.33 3368.69,2877.75 3359.02,2901.76 3348.17,2897.07 3357.30,2873.33"/>
    <poly id="127744552" type="building" color="255,230,230" fill="1" layer="-1.00" shape="3280.20,2868.26 3286.72,2850.73 3282.66,2849.18 3275.87,2866.98 3280.20,2868.26"/>
    <poly id="127744553" type="building" color="255,230,230" fill="1" layer="-1.00" shape="3297.57,2833.95 3291.41,2840.48 3286.72,2850.73 3282.66,2849.18 3283.12,2844.07 3272.60,2842.08 3272.93,2848.76 3270.86,2854.97 3269.29,2859.01 3263.99,2866.86 3272.44,2872.93 3275.87,2866.98 3280.20,2868.26 3277.37,2878.77 3276.44,2889.78 3316.71,2893.72 3325.78,2898.17 3340.96,2862.01 3330.66,2858.03 3297.57,2833.95"/>
    <poly id="127744554" type="building" color="255,230,230" fill="1" layer="-1.00" shape="3325.78,2898.17 3333.80,2901.38 3331.72,2907.85 3342.71,2913.24 3348.17,2897.07 3357.30,2873.33 3362.52,2859.32 3343.51,2850.43 3341.71,2857.44 3340.96,2862.01 3325.78,2898.17"/>
    <poly id="127747044" type="parking" color="184,184,179" fill="1" layer="-1.00" shape="3243.06,2671.24 3250.30,2654.40 3259.70,2658.26 3257.38,2663.79 3252.59,2675.16 3243.06,2671.24"/>
    <poly id="127747044#1" type="building" color="255,230,230" fill="1" layer="-1.00" shape="3243.06,2671.24 3250.30,2654.40 3259.70,2658.26 3257.38,2663.79 3252.59,2675.16 3243.06,2671.24"/>
    <poly id="127747046" type="parking" color="184,184,179" fill="1" layer="-1.00" shape="3267.39,2667.85 3283.07,2631.53 3272.22,2627.37 3262.28,2651.12 3253.37,2647.24 3265.47,2619.09 3293.48,2630.42 3275.93,2671.30 3267.39,2667.85"/>
    <poly id="127747046#1" type="building" color="255,230,230" fill="1" layer="-1.00" shape="3267.39,2667.85 3283.07,2631.53 3272.22,2627.37 3262.28,2651.12 3253.37,2647.24 3265.47,2619.09 3293.48,2630.42 3275.93,2671.30 3267.39,2667.85"/>
    <poly id="127747047" type="parking" color="184,184,179" fill="1" layer="-1.00" shape="3271.03,2682.73 3252.59,2675.16 3257.38,2663.79 3267.39,2667.85 3275.93,2671.30 3271.03,2682.73"/>
    <poly id="127747047#1" type="building" color="255,230,230" fill="1" layer="-1.00" shape="3271.03,2682.73 3252.59,2675.16 3257.38,2663.79 3267.39,2667.85 3275.93,2671.30 3271.03,2682.73"/>
    <poly id="127749138" type="building" color="255,230,230" fill="1" layer="-1.00" shape="3089.68,2796.19 3076.84,2790.63 3081.18,2780.64 3076.39,2778.59 3081.11,2767.80 3085.95,2769.86 3090.18,2759.90 3085.21,2757.81 3089.13,2749.03 3096.72,2730.16 3120.67,2740.66 3108.19,2766.50 3104.01,2764.82 3100.97,2771.28 3107.40,2773.87 3098.81,2793.97 3091.97,2790.93 3089.68,2796.19"/>
    <poly id="127749140" type="building" color="255,230,230" fill="1" layer="-1.00" shape="3048.05,2778.16 3059.31,2751.44 3069.68,2755.71 3067.26,2761.54 3081.11,2767.80 3076.39,2778.59 3062.54,2772.07 3058.02,2782.48 3048.05,2778.16"/>
    <poly id="127749142" type="building" color="255,230,230" fill="1" layer="-1.00" shape="3082.23,2819.67 3038.10,2801.10 3048.05,2778.16 3058.02,2782.48 3076.84,2790.63 3089.68,2796.19 3092.56,2797.44 3082.23,2819.67"/>
    <poly id="127749143" type="building" color="255,230,230" fill="1" layer="-1.00" shape="3069.68,2755.71 3075.39,2742.65 3089.13,2749.03 3096.72,2730.16 3072.23,2718.89 3059.31,2751.44 3069.68,2755.71"/>
    <poly id="127750251" type="building" color="255,230,230" fill="1" layer="-1.00" shape="3398.76,2418.82 3386.87,2413.98 3382.12,2425.75 3366.66,2419.52 3370.05,2410.89 3356.59,2404.75 3363.29,2388.70 3376.91,2394.48 3379.79,2387.11 3396.00,2394.18 3391.90,2403.61 3403.21,2408.57 3398.76,2418.82"/>
    <poly id="129306792" type="building" color="255,230,230" fill="1" layer="-1.00" shape="3725.48,1960.28 3712.97,1942.19 3711.18,1939.61 3695.92,1948.68 3680.91,1954.69 3668.00,1958.61 3655.88,1960.73 3656.63,1964.45 3660.22,1982.07 3656.98,1983.53 3658.67,1987.18 3671.85,1985.22 3686.91,1980.64 3698.72,1976.55 3711.05,1970.67 3725.48,1960.28"/>
    <poly id="129306793" type="building" color="255,230,230" fill="1" layer="-1.00" shape="3738.19,1920.94 3712.97,1942.19 3725.48,1960.28 3711.05,1970.67 3698.72,1976.55 3686.91,1980.64 3671.85,1985.22 3658.67,1987.18 3656.98,1983.53 3660.22,1982.07 3656.63,1964.45 3649.09,1973.16 3631.96,1992.94 3631.22,1993.79 3653.76,2001.23 3651.80,2006.97 3687.17,2012.23 3704.04,2010.44 3724.20,1966.06 3743.09,1924.44 3738.19,1920.94"/>
    <poly id="129306793#1" type="shop" color="237,199,255" fill="1" layer="-1.00" shape="3738.19,1920.94 3712.97,1942.19 3725.48,1960.28 3711.05,1970.67 3698.72,1976.55 3686.91,1980.64 3671.85,1985.22 3658.67,1987.18 3656.98,1983.53 3660.22,1982.07 3656.63,1964.45 3649.09,1973.16 3631.96,1992.94 3631.22,1993.79 3653.76,2001.23 3651.80,2006.97 3687.17,2012.23 3704.04,2010.44 3724.20,1966.06 3743.09,1924.44 3738.19,1920.94"/>
    <poly id="129306796" type="building" color="255,230,230" fill="1" layer="-1.00" shape="3730.74,1991.26 3745.72,1948.33 3766.82,1889.84 3779.75,1895.23 3779.03,2007.54 3758.37,2005.88 3755.83,1996.73 3730.74,1991.26"/>
    <poly id="129306802" type="parking" color="184,184,179" fill="1" layer="-1.00" shape="3746.38,1924.17 3738.29,1920.42 3712.95,1941.53 3711.17,1939.01 3695.58,1948.36 3680.39,1954.44 3668.12,1958.16 3655.66,1960.26 3656.02,1964.20 3648.90,1972.64 3642.64,1966.44 3691.23,1914.24 3702.27,1906.95 3712.95,1890.51 3719.74,1874.11 3723.26,1871.61 3755.60,1886.84 3746.38,1924.17"/>
    <poly id="129306803" type="amenity" color="237,199,199" fill="1" layer="-1.00" shape="3677.21,1607.78 3685.07,1589.96 3744.73,1615.48 3697.30,1722.71 3641.14,1697.33 3643.60,1691.96 3638.58,1689.66 3642.39,1682.04 3650.58,1685.71 3658.04,1669.20 3652.61,1666.59 3655.76,1660.11 3658.14,1654.83 3668.88,1659.78 3674.30,1648.21 3661.46,1642.32 3668.93,1624.87 3679.11,1629.21 3686.64,1611.81 3677.21,1607.78"/>
    <poly id="129306803#1" type="building" color="255,230,230" fill="1" layer="-1.00" shape="3677.21,1607.78 3685.07,1589.96 3744.73,1615.48 3697.30,1722.71 3641.14,1697.33 3643.60,1691.96 3638.58,1689.66 3642.39,1682.04 3650.58,1685.71 3658.04,1669.20 3652.61,1666.59 3655.76,1660.11 3658.14,1654.83 3668.88,1659.78 3674.30,1648.21 3661.46,1642.32 3668.93,1624.87 3679.11,1629.21 3686.64,1611.81 3677.21,1607.78"/>
    <poly id="129306804" type="building" color="255,230,230" fill="1" layer="-1.00" shape="3641.14,1697.33 3643.60,1691.96 3638.58,1689.66 3642.39,1682.04 3650.58,1685.71 3658.04,1669.20 3652.61,1666.59 3655.76,1660.11 3658.14,1654.83 3668.88,1659.78 3674.30,1648.21 3661.46,1642.32 3668.93,1624.87 3679.11,1629.21 3686.64,1611.81 3677.21,1607.78 3685.07,1589.96 3657.64,1577.43 3633.24,1631.77 3655.12,1641.63 3651.57,1649.70 3631.77,1641.37 3610.76,1687.88 3639.80,1700.12 3641.14,1697.33"/>
    <poly id="129306805" type="building" color="255,230,230" fill="1" layer="-1.00" shape="3649.09,1973.16 3642.20,1966.47 3621.97,1987.66 3623.08,1990.06 3626.88,1992.51 3631.96,1992.94 3649.09,1973.16"/>
    <poly id="129317821" type="landuse" color="194,194,130" fill="1" layer="-3.00" shape="4439.55,1990.58 4472.23,1962.43 4327.94,1827.65 4041.42,1622.13 4018.58,1652.57 3987.62,1693.83 3952.00,1732.18 3838.13,1835.33 3820.09,1864.84 3816.53,1889.77 3818.08,1915.86 3819.44,1930.07 3823.87,1967.85 3827.88,1993.63 3832.31,2003.53 3840.74,2007.08 3850.71,2008.96 4012.39,1786.83 4230.21,1937.48 4256.20,1903.33 4342.77,1961.23 4358.74,1944.93 4420.17,1979.01 4439.55,1990.58"/>
    <poly id="129320875" type="building" color="255,230,230" fill="1" layer="-1.00" shape="3703.35,1791.76 3721.20,1750.56 3694.13,1739.51 3677.47,1780.80 3703.35,1791.76"/>
    <poly id="129320877" type="building" color="255,230,230" fill="1" layer="-1.00" shape="3681.86,1819.62 3689.56,1795.52 3719.73,1807.68 3708.79,1830.65 3681.86,1819.62"/>
    <poly id="129320877#1" type="shop" color="237,199,255" fill="1" layer="-1.00" shape="3681.86,1819.62 3689.56,1795.52 3719.73,1807.68 3708.79,1830.65 3681.86,1819.62"/>
    <poly id="129320878" type="building" color="255,230,230" fill="1" layer="-1.00" shape="3693.06,1787.43 3689.62,1795.53 3719.50,1807.57 3707.63,1781.96 3703.36,1791.77 3693.06,1787.43"/>
    <poly id="129322190" type="building" color="255,230,230" fill="1" layer="-1.00" shape="3342.34,1399.06 3356.61,1365.80 3401.22,1384.71 3386.95,1417.98 3342.34,1399.06"/>
    <poly id="129322191" type="building" color="255,230,230" fill="1" layer="-1.00" shape="3309.07,1333.02 3285.91,1323.69 3270.66,1361.09 3293.83,1370.42 3309.07,1333.02"/>
    <poly id="129322195" type="building" color="255,230,230" fill="1" layer="-1.00" shape="3264.89,1356.08 3255.08,1352.09 3246.39,1373.30 3256.20,1377.27 3264.89,1356.08"/>
    <poly id="129322198" type="building" color="255,230,230" fill="1" layer="-1.00" shape="3287.20,1317.69 3291.59,1306.87 3331.97,1323.04 3327.59,1333.86 3287.20,1317.69"/>
    <poly id="129322199" type="building" color="255,230,230" fill="1" layer="-1.00" shape="3311.61,1398.16 3323.40,1371.81 3334.43,1376.70 3322.64,1403.03 3311.61,1398.16"/>
    <poly id="129322201" type="building" color="255,230,230" fill="1" layer="-1.00" shape="3211.34,1387.37 3206.38,1382.33 3186.43,1374.27 3218.83,1295.00 3280.16,1319.78 3286.83,1303.48 3202.78,1268.55 3153.94,1384.78 3203.73,1405.49 3211.34,1387.37"/>
    <poly id="129322205" type="building" color="255,230,230" fill="1" layer="-1.00" shape="3206.38,1382.33 3211.10,1371.23 3249.67,1387.46 3250.65,1385.13 3281.68,1398.18 3286.19,1387.57 3293.21,1393.04 3283.06,1417.19 3206.38,1382.33"/>
    <poly id="129345844" type="building" color="255,230,230" fill="1" layer="-1.00" shape="2565.97,1898.12 2553.70,1893.04 2550.07,1902.38 2550.92,1902.60 2549.07,1907.27 2560.38,1911.99 2565.97,1898.12"/>
    <poly id="129345846" type="amenity" color="237,199,199" fill="1" layer="-1.00" shape="2553.70,1893.04 2550.07,1902.38 2546.37,1911.89 2558.44,1916.81 2560.38,1911.99 2565.97,1898.12 2570.72,1886.31 2558.59,1881.20 2557.11,1884.64 2528.40,1872.94 2533.44,1861.30 2564.63,1874.05 2575.62,1847.62 2584.13,1850.88 2588.65,1839.84 2565.09,1829.85 2566.96,1825.19 2563.47,1823.64 2549.43,1856.54 2544.95,1854.72 2540.94,1864.35 2537.34,1862.89 2541.32,1853.17 2535.18,1850.56 2553.76,1805.23 2568.44,1811.24 2565.53,1818.23 2569.12,1819.56 2571.61,1813.76 2602.40,1826.51 2594.75,1845.49 2598.55,1847.05 2614.05,1809.60 2632.70,1817.36 2629.26,1825.64 2624.59,1823.66 2604.53,1871.12 2616.49,1876.07 2605.16,1903.70 2586.98,1895.80 2586.02,1898.35 2580.84,1896.39 2577.78,1903.62 2586.10,1907.05 2588.98,1900.30 2599.38,1904.94 2590.50,1925.83 2580.18,1921.45 2584.02,1912.44 2575.54,1908.88 2563.52,1937.73 2548.92,1931.69 2547.79,1934.30 2542.40,1931.96 2543.50,1929.34 2528.83,1923.24 2530.71,1919.09 2526.64,1917.31 2528.96,1911.81 2532.76,1913.65 2542.72,1890.17 2539.47,1888.95 2541.29,1884.28 2544.84,1885.67 2547.05,1880.56 2557.10,1884.67 2553.70,1893.04"/>
    <poly id="129345846#1" type="building" color="255,230,230" fill="1" layer="-1.00" shape="2553.70,1893.04 2550.07,1902.38 2546.37,1911.89 2558.44,1916.81 2560.38,1911.99 2565.97,1898.12 2570.72,1886.31 2558.59,1881.20 2557.11,1884.64 2528.40,1872.94 2533.44,1861.30 2564.63,1874.05 2575.62,1847.62 2584.13,1850.88 2588.65,1839.84 2565.09,1829.85 2566.96,1825.19 2563.47,1823.64 2549.43,1856.54 2544.95,1854.72 2540.94,1864.35 2537.34,1862.89 2541.32,1853.17 2535.18,1850.56 2553.76,1805.23 2568.44,1811.24 2565.53,1818.23 2569.12,1819.56 2571.61,1813.76 2602.40,1826.51 2594.75,1845.49 2598.55,1847.05 2614.05,1809.60 2632.70,1817.36 2629.26,1825.64 2624.59,1823.66 2604.53,1871.12 2616.49,1876.07 2605.16,1903.70 2586.98,1895.80 2586.02,1898.35 2580.84,1896.39 2577.78,1903.62 2586.10,1907.05 2588.98,1900.30 2599.38,1904.94 2590.50,1925.83 2580.18,1921.45 2584.02,1912.44 2575.54,1908.88 2563.52,1937.73 2548.92,1931.69 2547.79,1934.30 2542.40,1931.96 2543.50,1929.34 2528.83,1923.24 2530.71,1919.09 2526.64,1917.31 2528.96,1911.81 2532.76,1913.65 2542.72,1890.17 2539.47,1888.95 2541.29,1884.28 2544.84,1885.67 2547.05,1880.56 2557.10,1884.67 2553.70,1893.04"/>
    <poly id="129345847" type="tourism" color="207,245,201" fill="1" layer="-2.00" shape="3061.78,1884.64 3089.24,1812.09 3221.79,1866.70 3192.81,1938.52 3061.78,1884.64"/>
    <poly id="129346075" type="building" color="255,230,230" fill="1" layer="-1.00" shape="2583.34,1812.98 2592.46,1791.66 2610.68,1799.27 2601.64,1820.72 2583.34,1812.98"/>
    <poly id="129346762" type="building" color="255,230,230" fill="1" layer="-1.00" shape="2118.68,1495.84 2123.45,1484.28 2134.55,1488.95 2129.65,1500.52 2118.68,1495.84"/>
    <poly id="129346763" type="amenity" color="237,199,199" fill="1" layer="-1.00" shape="2141.41,1549.09 2130.26,1544.27 2140.09,1521.03 2151.22,1525.72 2141.41,1549.09"/>
    <poly id="129346763#1" type="sport" color="79,230,125" fill="1" layer="-2.00" shape="2141.41,1549.09 2130.26,1544.27 2140.09,1521.03 2151.22,1525.72 2141.41,1549.09"/>
    <poly id="129346764" type="building" color="255,230,230" fill="1" layer="-1.00" shape="2114.53,1537.38 2104.29,1533.27 2112.54,1513.57 2122.81,1517.65 2114.53,1537.38"/>
    <poly id="129346765" type="leisure" color="207,245,201" fill="1" layer="-2.00" shape="2212.28,1554.49 2213.54,1547.76 2212.70,1544.82 2208.60,1540.84 2208.82,1537.89 2211.22,1534.64 2220.32,1528.89 2225.42,1528.02 2235.43,1528.96 2238.71,1532.13 2239.04,1537.50 2225.99,1551.08 2224.15,1554.60 2223.67,1558.89 2226.41,1562.61 2225.91,1565.84 2224.06,1568.28 2216.02,1572.68 2207.91,1571.17 2205.45,1568.79 2203.25,1565.87 2204.29,1562.10 2210.97,1557.45 2212.28,1554.49"/>
    <poly id="129346765#1" type="sport" color="79,230,125" fill="1" layer="-2.00" shape="2212.28,1554.49 2213.54,1547.76 2212.70,1544.82 2208.60,1540.84 2208.82,1537.89 2211.22,1534.64 2220.32,1528.89 2225.42,1528.02 2235.43,1528.96 2238.71,1532.13 2239.04,1537.50 2225.99,1551.08 2224.15,1554.60 2223.67,1558.89 2226.41,1562.61 2225.91,1565.84 2224.06,1568.28 2216.02,1572.68 2207.91,1571.17 2205.45,1568.79 2203.25,1565.87 2204.29,1562.10 2210.97,1557.45 2212.28,1554.49"/>
    <poly id="129346766" type="leisure" color="207,245,201" fill="1" layer="-2.00" shape="2248.81,1526.23 2258.29,1505.46 2226.34,1491.67 2217.07,1512.96 2248.81,1526.23"/>
    <poly id="129346766#1" type="sport" color="79,230,125" fill="1" layer="-2.00" shape="2248.81,1526.23 2258.29,1505.46 2226.34,1491.67 2217.07,1512.96 2248.81,1526.23"/>
    <poly id="129346767" type="building" color="255,230,230" fill="1" layer="-1.00" shape="2188.75,1573.90 2209.44,1524.52 2166.40,1506.70 2145.72,1556.08 2188.75,1573.90"/>
    <poly id="129346768" type="building" color="255,230,230" fill="1" layer="-1.00" shape="2143.74,1468.05 2134.25,1464.52 2145.06,1437.86 2154.56,1441.63 2143.74,1468.05"/>
    <poly id="129346770" type="building" color="255,230,230" fill="1" layer="-1.00" shape="2128.51,1484.44 2133.33,1472.84 2106.53,1461.66 2091.32,1499.40 2117.63,1509.80 2121.81,1499.55 2127.50,1501.89 2121.48,1515.92 2084.86,1501.37 2104.10,1454.60 2141.12,1469.78 2134.47,1486.90 2128.51,1484.44"/>
    <poly id="129347412" type="building" color="255,230,230" fill="1" layer="-1.00" shape="3245.91,1757.35 3240.46,1769.64 3159.08,1737.27 3163.79,1725.94 3143.72,1717.61 3139.01,1728.95 3110.61,1716.99 3096.15,1753.66 3089.16,1754.82 3082.02,1772.17 3009.72,1741.93 3046.18,1654.62 3129.43,1688.25 3253.76,1738.47 3245.91,1757.35"/>
    <poly id="129347412#1" type="shop" color="237,199,255" fill="1" layer="-1.00" shape="3245.91,1757.35 3240.46,1769.64 3159.08,1737.27 3163.79,1725.94 3143.72,1717.61 3139.01,1728.95 3110.61,1716.99 3096.15,1753.66 3089.16,1754.82 3082.02,1772.17 3009.72,1741.93 3046.18,1654.62 3129.43,1688.25 3253.76,1738.47 3245.91,1757.35"/>
    <poly id="129348054" type="building" color="255,230,230" fill="1" layer="-1.00" shape="3050.10,1697.90 3031.44,1689.92 3040.13,1669.10 3057.92,1676.32 3061.90,1665.62 3103.72,1683.16 3100.51,1690.83 3109.13,1694.32 3106.27,1701.47 3095.67,1697.08 3077.67,1742.62 3039.14,1726.49 3050.10,1697.90"/>
    <poly id="129348054#1" type="shop" color="237,199,255" fill="1" layer="-1.00" shape="3050.10,1697.90 3031.44,1689.92 3040.13,1669.10 3057.92,1676.32 3061.90,1665.62 3103.72,1683.16 3100.51,1690.83 3109.13,1694.32 3106.27,1701.47 3095.67,1697.08 3077.67,1742.62 3039.14,1726.49 3050.10,1697.90"/>
    <poly id="129353157" type="building" color="255,230,230" fill="1" layer="-1.00" shape="3342.69,1761.97 3358.82,1722.14 3382.38,1731.58 3366.25,1771.40 3342.69,1761.97"/>
    <poly id="129353158" type="building" color="255,230,230" fill="1" layer="-1.00" shape="3332.04,1712.34 3305.01,1701.43 3285.03,1750.38 3312.06,1761.30 3332.04,1712.34"/>
    <poly id="129353158#1" type="tourism" color="207,245,201" fill="1" layer="-2.00" shape="3332.04,1712.34 3305.01,1701.43 3285.03,1750.38 3312.06,1761.30 3332.04,1712.34"/>
    <poly id="129353160" type="building" color="255,230,230" fill="1" layer="-1.00" shape="3325.35,1755.03 3326.57,1745.35 3329.95,1745.43 3332.36,1744.59 3334.87,1739.87 3335.38,1737.45 3334.52,1734.25 3332.60,1731.58 3336.82,1724.01 3351.47,1729.99 3350.77,1739.13 3345.38,1739.20 3341.71,1747.30 3343.92,1751.56 3337.83,1760.23 3325.35,1755.03"/>
    <poly id="129358456" type="amenity" color="237,199,199" fill="1" layer="-1.00" shape="3342.30,1680.48 3321.06,1671.39 3328.31,1654.63 3349.55,1663.73 3342.30,1680.48"/>
    <poly id="129358456#1" type="building" color="255,230,230" fill="1" layer="-1.00" shape="3342.30,1680.48 3321.06,1671.39 3328.31,1654.63 3349.55,1663.73 3342.30,1680.48"/>
    <poly id="129368634" type="building" color="255,230,230" fill="1" layer="-1.00" shape="3632.57,3321.50 3646.23,3288.42 3631.31,3282.18 3617.70,3315.09 3632.57,3321.50"/>
    <poly id="129368638" type="building" color="255,230,230" fill="1" layer="-1.00" shape="3678.23,3244.75 3675.30,3243.42 3677.06,3239.21 3643.60,3224.90 3651.91,3205.00 3688.64,3221.16 3678.23,3244.75"/>
    <poly id="129368639" type="amenity" color="237,199,199" fill="1" layer="-1.00" shape="3635.21,3344.47 3644.56,3348.38 3649.42,3350.45 3661.33,3321.97 3670.64,3326.06 3676.19,3312.39 3666.61,3308.05 3696.43,3240.73 3682.76,3234.51 3678.23,3244.75 3653.21,3302.12 3642.58,3297.27 3636.71,3311.66 3646.98,3316.24 3635.21,3344.47"/>
    <poly id="129368639#1" type="building" color="255,230,230" fill="1" layer="-1.00" shape="3635.21,3344.47 3644.56,3348.38 3649.42,3350.45 3661.33,3321.97 3670.64,3326.06 3676.19,3312.39 3666.61,3308.05 3696.43,3240.73 3682.76,3234.51 3678.23,3244.75 3653.21,3302.12 3642.58,3297.27 3636.71,3311.66 3646.98,3316.24 3635.21,3344.47"/>
    <poly id="129368644" type="building" color="255,230,230" fill="1" layer="-1.00" shape="3659.31,3354.70 3670.64,3326.06 3676.19,3312.39 3704.65,3244.48 3717.82,3250.44 3694.34,3303.92 3671.72,3355.82 3670.19,3359.34 3659.31,3354.70"/>
    <poly id="129368655" type="building" color="255,230,230" fill="1" layer="-1.00" shape="3728.18,3255.02 3717.82,3250.44 3704.65,3244.48 3696.43,3240.73 3682.76,3234.51 3688.64,3221.16 3734.27,3241.84 3728.18,3255.02"/>
    <poly id="129369848" type="leisure" color="207,245,201" fill="0" layer="-2.00" shape="3320.24,3403.18 3301.14,3384.62 3233.33,3318.70 3225.89,3306.72 3223.34,3297.37 3224.79,3283.92 3232.93,3267.17 3241.74,3260.36 3250.86,3255.94 3267.04,3255.46 3278.71,3260.14 3289.08,3268.86 3354.41,3332.96 3362.38,3344.39 3364.45,3358.33 3362.72,3370.97 3358.80,3380.14 3353.48,3385.58 3346.52,3390.76 3335.51,3394.13 3325.26,3394.80 3317.96,3393.55 3309.55,3390.44 3301.14,3384.62"/>
    <poly id="129369848#1" type="sport" color="79,230,125" fill="0" layer="-2.00" shape="3320.24,3403.18 3301.14,3384.62 3233.33,3318.70 3225.89,3306.72 3223.34,3297.37 3224.79,3283.92 3232.93,3267.17 3241.74,3260.36 3250.86,3255.94 3267.04,3255.46 3278.71,3260.14 3289.08,3268.86 3354.41,3332.96 3362.38,3344.39 3364.45,3358.33 3362.72,3370.97 3358.80,3380.14 3353.48,3385.58 3346.52,3390.76 3335.51,3394.13 3325.26,3394.80 3317.96,3393.55 3309.55,3390.44 3301.14,3384.62"/>
    <poly id="129369853" type="leisure" color="207,245,201" fill="1" layer="-2.00" shape="3251.94,3317.56 3232.33,3298.37 3243.80,3286.78 3263.41,3305.97 3251.94,3317.56"/>
    <poly id="129369853#1" type="sport" color="79,230,125" fill="1" layer="-2.00" shape="3251.94,3317.56 3232.33,3298.37 3243.80,3286.78 3263.41,3305.97 3251.94,3317.56"/>
    <poly id="129369854" type="leisure" color="207,245,201" fill="1" layer="-2.00" shape="3308.77,3383.01 3250.46,3323.50 3292.61,3282.66 3350.92,3342.17 3308.77,3383.01"/>
    <poly id="129369854#1" type="sport" color="79,230,125" fill="1" layer="-2.00" shape="3308.77,3383.01 3250.46,3323.50 3292.61,3282.66 3350.92,3342.17 3308.77,3383.01"/>
    <poly id="129369856" type="leisure" color="207,245,201" fill="1" layer="-2.00" shape="3265.26,3304.28 3246.24,3285.54 3258.83,3272.89 3277.86,3291.62 3265.26,3304.28"/>
    <poly id="129369856#1" type="sport" color="79,230,125" fill="1" layer="-2.00" shape="3265.26,3304.28 3246.24,3285.54 3258.83,3272.89 3277.86,3291.62 3265.26,3304.28"/>
    <poly id="129412308" type="parking" color="184,184,179" fill="1" layer="-1.00" shape="3721.20,1750.56 3737.09,1758.69 3716.60,1833.40 3708.79,1830.65 3719.73,1807.68 3707.63,1781.96 3721.20,1750.56"/>
    <poly id="129413835" type="building" color="255,230,230" fill="1" layer="-1.00" shape="3637.20,2142.03 3642.77,2139.36 3640.98,2135.91 3636.61,2138.42 3644.59,2133.75 3641.58,2129.46 3634.62,2134.70 3644.63,2127.15 3639.51,2120.78 3630.38,2131.75 3641.23,2118.64 3633.74,2111.01 3626.55,2129.81 3634.01,2133.81 3636.86,2139.18 3637.20,2142.03"/>
    <poly id="129413836" type="building" color="255,230,230" fill="1" layer="-1.00" shape="3554.04,2123.05 3558.06,2112.61 3579.33,2120.91 3575.26,2131.30 3554.04,2123.05"/>
    <poly id="129413837" type="parking" color="184,184,179" fill="1" layer="-1.00" shape="3680.42,2050.57 3650.46,2038.04 3627.36,2091.43 3616.99,2086.99 3622.02,2075.40 3594.91,2065.29 3590.05,2078.49 3602.93,2083.30 3599.92,2090.70 3614.47,2096.43 3612.61,2101.41 3634.18,2109.79 3633.69,2111.11 3638.94,2120.28 3640.06,2124.39 3639.55,2131.43 3636.95,2139.18 3637.56,2144.54 3635.47,2149.88 3647.09,2155.03 3660.60,2121.50 3652.17,2118.17 3680.42,2050.57"/>