<?xml version="1.0" encoding="UTF-8"?>

<!-- generated on Sat May  9 19:03:46 2015 by SUMO jtrrouter Version 0.22.0
<?xml version="1.0" encoding="UTF-8"?>

<configuration xmlns:xsi="http://www.w3.org/2001/XMLSchema-instance" xsi:noNamespaceSchemaLocation="http://sumo.dlr.de/xsd/jtrrouterConfiguration.xsd">

    <input>
        <net-file value="manhh.net.xml"/>
        <flow-files value="flow1.flw.xml"/>
    </input>

    <output>
        <output-file value="manhh20.rou.xml"/>
    </output>

    <processing>
        <turn-defaults value="25,50,25"/>
    </processing>

    <time>
        <begin value="0"/>
        <end value="900"/>
    </time>

    <report>
        <verbose value="true"/>
    </report>

    <random_number>
        <seed value="2666"/>
    </random_number>

</configuration>
-->

<routes xmlns:xsi="http://www.w3.org/2001/XMLSchema-instance" xsi:noNamespaceSchemaLocation="http://sumo.dlr.de/xsd/routes_file.xsd">
    <vType id="car01" length="4.30" maxSpeed="33.33" speedDev="0.10">
        <carFollowing-Krauss accel="2.80" decel="8.00"/>
    </vType>
    <vehicle id="0.0" type="car01" depart="0.00" color="yellow">
        <route edges="R1-2 D2-6 D6-10 D10-14 L14-13 U13-9 R9-10 R10-11 R11-12 D12-16 L16-15 L15-14 U14-10 U10-6 R6-7 R7-8 D8-12 L12-11 L11-10 L10-9 U9-5 U5-1 R1-2 D2-6 D6-10 R10-11 D11-15 L15-14 U14-10 L10-9 D9-13 R13-14 R14-15 U15-11 U11-7 R7-8 D8-12 L12-11 D11-15 R15-16 U16-12 U12-8 L8-7 L7-6 U6-2 L2-1 D1-5 R5-6 R6-7 U7-3 L3-2 D2-6 D6-10 D10-14 L14-13 U13-9 U9-5 U5-1"/>
    </vehicle>
    <vehicle id="1.0" type="car01" depart="0.00" color="blue">
        <route edges="L4-3 D3-7 D7-11 D11-15 R15-16 U16-12 U12-8 U8-4 L4-3 D3-7 D7-11 D11-15 L15-14 L14-13 U13-9 R9-10 D10-14 R14-15 R15-16 U16-12 L12-11 U11-7 U7-3 R3-4 D4-8 L8-7 L7-6 D6-10 L10-9 D9-13 R13-14 U14-10 U10-6 U6-2 R2-3 R3-4 D4-8 D8-12 D12-16 L16-15 U15-11 U11-7 L7-6"/>
    </vehicle>
    <vehicle id="2.0" type="car01" depart="0.00" color="red">
        <route edges="R13-14 R14-15 U15-11 R11-12 D12-16 L16-15 L15-14 U14-10 U10-6 R6-7 R7-8 D8-12 L12-11 L11-10 L10-9 D9-13 R13-14 R14-15 R15-16 U16-12 L12-11 L11-10 U10-6 L6-5 D5-9 R9-10 R10-11 R11-12 U12-8 L8-7 L7-6 U6-2 L2-1 D1-5 R5-6 R6-7 R7-8 D8-12 L12-11 D11-15 R15-16 U16-12 L12-11 U11-7 R7-8 D8-12"/>
    </vehicle>
    <vehicle id="3.0" type="car01" depart="0.00" color="cyan">
        <route edges="L16-15 L15-14 U14-10 U10-6 L6-5 U5-1 R1-2 D2-6 D6-10 D10-14 R14-15 U15-11 U11-7 U7-3 R3-4 D4-8 L8-7 L7-6 U6-2 L2-1 D1-5 R5-6 R6-7 R7-8 U8-4 L4-3 L3-2 L2-1 D1-5 D5-9 R9-10 R10-11 R11-12 D12-16 L16-15 L15-14 L14-13 U13-9 U9-5 R5-6 D6-10 R10-11 U11-7 L7-6 D6-10 R10-11"/>
    </vehicle>
    <vehicle id="4.0" type="car01" depart="0.00" color="magenta">
        <route edges="R5-6 R6-7 R7-8 U8-4 L4-3 D3-7 D7-11 D11-15 L15-14 L14-13 U13-9 R9-10 D10-14 R14-15 R15-16 U16-12 L12-11 U11-7 U7-3 R3-4 D4-8 L8-7 L7-6 D6-10 L10-9 D9-13 R13-14 U14-10 U10-6 U6-2 R2-3 R3-4 D4-8 L8-7 D7-11 D11-15 L15-14 L14-13 U13-9 U9-5 R5-6 R6-7 U7-3 L3-2 L2-1 D1-5"/>
    </vehicle>
    <vehicle id="5.0" type="car01" depart="0.00" color="yellow">
        <route edges="L12-11 U11-7 R7-8 U8-4 L4-3 L3-2 L2-1 D1-5 D5-9 R9-10 R10-11 R11-12 D12-16 L16-15 L15-14 L14-13 U13-9 U9-5 R5-6 R6-7 U7-3 R3-4 D4-8 D8-12 D12-16 L16-15 U15-11 U11-7 L7-6 U6-2 L2-1 D1-5 D5-9 D9-13 R13-14 R14-15 R15-16 U16-12 U12-8 U8-4 L4-3 D3-7 L7-6 U6-2 R2-3"/>
    </vehicle>
    <vehicle id="6.0" type="car01" depart="0.00" color="blue">
        <route edges="D2-6 R6-7 U7-3 L3-2 L2-1 D1-5 R5-6 D6-10 R10-11 R11-12 D12-16 L16-15 L15-14 L14-13 U13-9 R9-10 U10-6 L6-5 U5-1 R1-2 R2-3 R3-4 D4-8 D8-12 L12-11 L11-10 L10-9 U9-5 R5-6 R6-7 U7-3 L3-2 L2-1 D1-5 D5-9 R9-10 R10-11 R11-12 D12-16 L16-15 L15-14 U14-10 R10-11 R11-12"/>
    </vehicle>
    <vehicle id="7.0" type="car01" depart="0.00" color="red">
        <route edges="U15-11 U11-7 U7-3 L3-2 L2-1 D1-5 D5-9 R9-10 R10-11 R11-12 D12-16 L16-15 L15-14 U14-10 L10-9 U9-5 R5-6 U6-2 R2-3 R3-4 D4-8 D8-12 L12-11 L11-10 D10-14 L14-13 U13-9 U9-5 R5-6 R6-7 U7-3 L3-2 L2-1 D1-5 D5-9 R9-10 R10-11 R11-12 D12-16 L16-15 L15-14 U14-10 L10-9 U9-5"/>
    </vehicle>
    <vehicle id="8.0" type="car01" depart="0.00" color="cyan">
        <route edges="U13-9 U9-5 R5-6 R6-7 U7-3 L3-2 D2-6 L6-5 U5-1 R1-2 R2-3 R3-4 D4-8 D8-12 D12-16 L16-15 U15-11 U11-7 L7-6 U6-2 L2-1 D1-5 D5-9 R9-10 U10-6 L6-5 D5-9 R9-10 R10-11 R11-12 D12-16 L16-15 L15-14 U14-10 L10-9 D9-13 R13-14 R14-15 R15-16 U16-12 U12-8 L8-7 L7-6 U6-2"/>
    </vehicle>
    <vehicle id="9.0" type="car01" depart="0.00" color="magenta">
        <route edges="D4-8 D8-12 D12-16 L16-15 L15-14 L14-13 U13-9 U9-5 U5-1 R1-2 D2-6 D6-10 L10-9 D9-13 R13-14 R14-15 R15-16 U16-12 L12-11 L11-10 U10-6 L6-5 D5-9 R9-10 R10-11 R11-12 U12-8 L8-7 D7-11 D11-15 L15-14 U14-10 L10-9 D9-13 R13-14 R14-15 R15-16 U16-12 U12-8 L8-7 L7-6 L6-5"/>
    </vehicle>
    <vehicle id="0.1" type="car01" depart="1.00" color="yellow">
        <route edges="R1-2 R2-3 D3-7 D7-11 L11-10 U10-6 L6-5 D5-9 R9-10 R10-11 R11-12 D12-16 L16-15 L15-14 U14-10 L10-9 D9-13 R13-14 R14-15 U15-11 U11-7 R7-8 D8-12 L12-11 D11-15 R15-16 U16-12 U12-8 L8-7 L7-6 U6-2 L2-1 D1-5 R5-6 R6-7 U7-3 L3-2 D2-6 D6-10 D10-14 L14-13 U13-9 U9-5 U5-1"/>
    </vehicle>
    <vehicle id="1.1" type="car01" depart="1.00" color="blue">
        <route edges="L4-3 D3-7 L7-6 L6-5 U5-1 R1-2 R2-3 R3-4 D4-8 L8-7 D7-11 D11-15 L15-14 L14-13 U13-9 U9-5 R5-6 R6-7 U7-3 L3-2 L2-1 D1-5 D5-9 R9-10 D10-14 R14-15 R15-16 U16-12 L12-11 U11-7 R7-8 U8-4 L4-3 D3-7 D7-11 R11-12 D12-16 L16-15 L15-14 U14-10 U10-6 L6-5 D5-9 D9-13 R13-14"/>
    </vehicle>
    <vehicle id="2.1" type="car01" depart="1.00" color="red">
        <route edges="R13-14 U14-10 L10-9 D9-13 R13-14 R14-15 R15-16 U16-12 U12-8 L8-7 L7-6 L6-5 U5-1 R1-2 D2-6 R6-7 U7-3 R3-4 D4-8 D8-12 L12-11 L11-10 L10-9 D9-13 R13-14 R14-15 U15-11 U11-7 U7-3 L3-2 L2-1 D1-5 D5-9 R9-10 R10-11 R11-12 D12-16 L16-15 L15-14 U14-10 U10-6 R6-7 D7-11 D11-15 "/>
    </vehicle>
    <vehicle id="3.1" type="car01" depart="1.00" color="cyan">
        <route edges="L16-15 U15-11 R11-12 D12-16 L16-15 U15-11 U11-7 L7-6 U6-2 L2-1 D1-5 D5-9 R9-10 U10-6 L6-5 D5-9 R9-10 U10-6 R6-7 R7-8 D8-12 L12-11 L11-10 L10-9 D9-13 R13-14 R14-15 R15-16 U16-12 L12-11 U11-7 L7-6 U6-2 R2-3 D3-7 D7-11 D11-15 R15-16 U16-12 U12-8 U8-4 L4-3 L3-2"/>
    </vehicle>
    <vehicle id="4.1" type="car01" depart="1.00" color="magenta">
        <route edges="R5-6 U6-2 L2-1 D1-5 D5-9 D9-13 R13-14 R14-15 R15-16 U16-12 U12-8 U8-4 L4-3 D3-7 L7-6 L6-5 U5-1 R1-2 D2-6 R6-7 U7-3 R3-4 D4-8 D8-12 L12-11 L11-10 U10-6 L6-5 U5-1 R1-2 R2-3 R3-4 D4-8 D8-12 L12-11 L11-10 L10-9 U9-5 R5-6 R6-7 U7-3 R3-4 D4-8 L8-7 D7-11 R11-12"/>
    </vehicle>
    <vehicle id="5.1" type="car01" depart="1.00" color="yellow">
        <route edges="L12-11 L11-10 L10-9 D9-13 R13-14 R14-15 U15-11 U11-7 L7-6 U6-2 R2-3 D3-7 D7-11 D11-15 R15-16 U16-12 U12-8 U8-4 L4-3 L3-2 L2-1 D1-5 D5-9 R9-10 R10-11 R11-12 D12-16 L16-15 L15-14 U14-10 U10-6 R6-7 U7-3 R3-4 D4-8 D8-12 D12-16 L16-15 U15-11 U11-7 L7-6 U6-2 L2-1 D1-5"/>
    </vehicle>
    <vehicle id="6.1" type="car01" depart="1.00" color="blue">
        <route edges="D2-6 L6-5 D5-9 R9-10 D10-14 L14-13 U13-9 U9-5 R5-6 D6-10 R10-11 U11-7 L7-6 U6-2 R2-3 D3-7 R7-8 U8-4 L4-3 L3-2 L2-1 D1-5 D5-9 R9-10 R10-11 R11-12 D12-16 L16-15 L15-14 U14-10 L10-9 U9-5 R5-6 U6-2 L2-1 D1-5 R5-6 R6-7 U7-3 L3-2 D2-6 D6-10 L10-9 D9-13 R13-14 U14-10 R10-11"/>
    </vehicle>
    <vehicle id="7.1" type="car01" depart="1.00" color="red">
        <route edges="U15-11 U11-7 U7-3 L3-2 D2-6 L6-5 U5-1 R1-2 R2-3 R3-4 D4-8 D8-12 L12-11 D11-15 L15-14 U14-10 L10-9 D9-13 R13-14 R14-15 R15-16 U16-12 U12-8 L8-7 L7-6 D6-10 D10-14 L14-13 U13-9 U9-5 R5-6 R6-7 R7-8 U8-4 L4-3 D3-7 D7-11 R11-12 D12-16 L16-15 U15-11 L11-10 L10-9 U9-5 R5-6 R6-7 R7-8"/>
    </vehicle>
    <vehicle id="8.1" type="car01" depart="1.00" color="cyan">
        <route edges="U13-9 R9-10 U10-6 L6-5 D5-9 D9-13 R13-14 U14-10 L10-9 U9-5 R5-6 U6-2 L2-1 D1-5 D5-9 D9-13 R13-14 R14-15 R15-16 U16-12 U12-8 U8-4 L4-3 D3-7 L7-6 L6-5 U5-1 R1-2 D2-6 R6-7 U7-3 R3-4 D4-8 D8-12 L12-11 L11-10 U10-6 L6-5 D5-9 R9-10 U10-6 R6-7 R7-8 D8-12 L12-11 L11-10 L10-9 U9-5 U5-1 R1-2"/>
    </vehicle>
    <vehicle id="9.1" type="car01" depart="1.00" color="magenta">
        <route edges="D4-8 L8-7 L7-6 L6-5 U5-1 R1-2 R2-3 R3-4 D4-8 D8-12 L12-11 D11-15 L15-14 U14-10 L10-9 D9-13 R13-14 R14-15 R15-16 U16-12 U12-8 L8-7 L7-6 D6-10 D10-14 L14-13 U13-9 U9-5 R5-6 D6-10 R10-11 U11-7 L7-6 D6-10 R10-11 R11-12 D12-16 L16-15 L15-14 U14-10 U10-6 R6-7 R7-8 D8-12 L12-11"/>
    </vehicle>
</routes>
