<?xml version="1.0" encoding="UTF-8"?>

<!-- generated on Tue Jun  9 01:57:54 2015 by SUMO jtrrouter Version 0.22.0
<?xml version="1.0" encoding="UTF-8"?>

<configuration xmlns:xsi="http://www.w3.org/2001/XMLSchema-instance" xsi:noNamespaceSchemaLocation="http://sumo.dlr.de/xsd/jtrrouterConfiguration.xsd">

    <input>
        <net-file value="4manhh.net.xml"/>
        <flow-files value="5flow25.flw.xml"/>
    </input>

    <output>
        <output-file value="6manhh25.rou.xml"/>
    </output>

    <processing>
        <turn-defaults value="25,50,25"/>
    </processing>

    <time>
        <begin value="0"/>
        <end value="1800"/>
    </time>

    <report>
        <verbose value="true"/>
    </report>

    <random_number>
        <seed value="3333"/>
    </random_number>

</configuration>
-->

<routes xmlns:xsi="http://www.w3.org/2001/XMLSchema-instance" xsi:noNamespaceSchemaLocation="http://sumo.dlr.de/xsd/routes_file.xsd">
    <vType id="car01" length="4.30" maxSpeed="33.33" speedDev="0.10">
        <carFollowing-Krauss accel="2.80" decel="8.00"/>
    </vType>
    <vehicle id="0.0" type="car01" depart="0.00" color="cyan">
        <route edges="R1-2 R2-3 D3-8 L8-7 D7-12 D12-17 D17-22 L22-21 U21-16 U16-11 R11-12 R12-13 D13-18 D18-23 R23-24 R24-25 U25-20 L20-19 U19-14 U14-9 U9-4 L4-3 L3-2 L2-1 D1-6 R6-7 R7-8 R8-9 R9-10 D10-15 L15-14 D14-19 L19-18 L18-17 L17-16 D16-21 R21-22 R22-23 U23-18 U18-13 L13-12 U12-7 U7-2 L2-1 D1-6 R6-7 D7-12 R12-13 U13-8 U8-3 R3-4 D4-9 D9-14 R14-15 U15-10 L10-9 L9-8 L8-7 D7-12 D12-17 D17-22 L22-21 U21-16"/>
    </vehicle>
    <vehicle id="1.0" type="car01" depart="0.00" color="blue">
        <route edges="L5-4 D4-9 D9-14 D14-19 D19-24 R24-25 U25-20 L20-19 U19-14 U14-9 L9-8 L8-7 U7-2 R2-3 D3-8 R8-9 U9-4 R4-5 D5-10 D10-15 L15-14 L14-13 U13-8 U8-3 R3-4 R4-5 D5-10 L10-9 U9-4 L4-3 D3-8 D8-13 L13-12 U12-7 R7-8 R8-9 D9-14 D14-19 D19-24 L24-23 L23-22 L22-21 U21-16 U16-11 R11-12 R12-13 R13-14 U14-9 U9-4 R4-5 D5-10 D10-15 L15-14 D14-19 D19-24 L24-23 U23-18 L18-17 U17-12 U12-7 L7-6 U6-1 R1-2 D2-7 D7-12 D12-17 R17-18 R18-19 U19-14 R14-15 U15-10 U10-5 L5-4 L4-3"/>
    </vehicle>
    <vehicle id="10.0" type="car01" depart="0.00" color="cyan">
        <route edges="L15-14 D14-19 R19-20 U20-15 U15-10 U10-5 L5-4 L4-3 L3-2 D2-7 D7-12 R12-13 D13-18 R18-19 D19-24 R24-25 U25-20 L20-19 L19-18 D18-23 L23-22 U22-17 U17-12 U12-7 L7-6 D6-11 R11-12 D12-17 R17-18 U18-13 R13-14 R14-15 D15-20 D20-25 L25-24 U24-19 U19-14 U14-9 R9-10 D10-15 D15-20 L20-19 L19-18 U18-13 R13-14 R14-15 U15-10 L10-9 L9-8 L8-7 U7-2 L2-1 D1-6 D6-11 D11-16 R16-17 R17-18 D18-23 L23-22 U22-17 U17-12 L12-11 U11-6 R6-7 R7-8 D8-13 D13-18 R18-19 U19-14 U14-9 R9-10 U10-5"/>
    </vehicle>
    <vehicle id="11.0" type="car01" depart="0.00" color="red">
        <route edges="L20-19 U19-14 R14-15 U15-10 U10-5 L5-4 L4-3 D3-8 D8-13 D13-18 R18-19 R19-20 U20-15 L15-14 L14-13 L13-12 D12-17 L17-16 D16-21 R21-22 R22-23 R23-24 R24-25 U25-20 U20-15 L15-14 L14-13 L13-12 D12-17 D17-22 R22-23 R23-24 U24-19 R19-20 D20-25 L25-24 L24-23 U23-18 L18-17 L17-16 D16-21 R21-22 U22-17 R17-18 R18-19 R19-20 U20-15 U15-10 U10-5 L5-4 L4-3 L3-2 D2-7 R7-8 R8-9 U9-4 R4-5 D5-10 D10-15 D15-20 L20-19 D19-24"/>
    </vehicle>
    <vehicle id="12.0" type="car01" depart="0.00" color="magenta">
        <route edges="D3-8 R8-9 R9-10 D10-15 L15-14 D14-19 D19-24 R24-25 U25-20 L20-19 L19-18 D18-23 R23-24 U24-19 U19-14 U14-9 U9-4 R4-5 D5-10 L10-9 L9-8 D8-13 D13-18 L18-17 D17-22 R22-23 U23-18 U18-13 U13-8 L8-7 L7-6 D6-11 R11-12 R12-13 R13-14 R14-15 D15-20 D20-25 L25-24 L24-23 L23-22 U22-17 U17-12 U12-7 R7-8 U8-3 R3-4 D4-9 D9-14 L14-13 L13-12 D12-17 R17-18 R18-19 R19-20 U20-15 U15-10 U10-5 L5-4 L4-3 L3-2 L2-1 D1-6 R6-7 U7-2 R2-3"/>
    </vehicle>
    <vehicle id="2.0" type="car01" depart="0.00" color="green">
        <route edges="R21-22 U22-17 U17-12 L12-11 U11-6 R6-7 D7-12 D12-17 D17-22 L22-21 U21-16 R16-17 R17-18 R18-19 R19-20 D20-25 L25-24 U24-19 L19-18 D18-23 L23-22 U22-17 R17-18 U18-13 L13-12 U12-7 L7-6 D6-11 D11-16 D16-21 R21-22 R22-23 U23-18 L18-17 D17-22 L22-21 U21-16 U16-11 R11-12 R12-13 R13-14 U14-9 U9-4 L4-3 L3-2 L2-1 D1-6 R6-7 D7-12 D12-17 L17-16 D16-21 R21-22 U22-17 U17-12 U12-7 U7-2 L2-1 D1-6 D6-11 D11-16 R16-17 D17-22"/>
    </vehicle>
    <vehicle id="3.0" type="car01" depart="0.00" color="cyan">
        <route edges="L25-24 L24-23 L23-22 L22-21 U21-16 U16-11 R11-12 U12-7 L7-6 U6-1 R1-2 D2-7 R7-8 D8-13 D13-18 R18-19 R19-20 D20-25 L25-24 U24-19 U19-14 L14-13 L13-12 D12-17 D17-22 R22-23 R23-24 R24-25 U25-20 U20-15 U15-10 U10-5 L5-4 D4-9 R9-10 D10-15 D15-20 L20-19 D19-24 R24-25 U25-20 U20-15 L15-14 L14-13 D13-18 D18-23 R23-24 U24-19 L19-18 L18-17 L17-16 U16-11 U11-6"/>
    </vehicle>
    <vehicle id="4.0" type="car01" depart="0.00" color="red">
        <route edges="D1-6 D6-11 D11-16 R16-17 R17-18 D18-23 R23-24 R24-25 U25-20 U20-15 L15-14 L14-13 U13-8 U8-3 R3-4 R4-5 D5-10 L10-9 U9-4 L4-3 D3-8 D8-13 L13-12 U12-7 R7-8 R8-9 D9-14 D14-19 D19-24 L24-23 L23-22 L22-21 U21-16 U16-11 R11-12 R12-13 R13-14 U14-9 R9-10 U10-5 L5-4 D4-9 L9-8 L8-7 D7-12 D12-17 D17-22 R22-23 U23-18 L18-17 L17-16 D16-21 R21-22 U22-17 U17-12 L12-11 U11-6 R6-7 U7-2 R2-3"/>
    </vehicle>
    <vehicle id="5.0" type="car01" depart="0.00" color="magenta">
        <route edges="D5-10 L10-9 D9-14 D14-19 D19-24 R24-25 U25-20 L20-19 L19-18 D18-23 R23-24 U24-19 U19-14 U14-9 L9-8 L8-7 L7-6 U6-1 R1-2 D2-7 D7-12 D12-17 L17-16 D16-21 R21-22 U22-17 R17-18 R18-19 R19-20 U20-15 U15-10 U10-5 L5-4 L4-3 D3-8 D8-13 D13-18 L18-17 U17-12 L12-11 U11-6 R6-7 U7-2 R2-3 R3-4 R4-5 D5-10 D10-15 L15-14 D14-19 L19-18 L18-17 L17-16 D16-21 R21-22 U22-17 U17-12 U12-7 U7-2 R2-3 D3-8 D8-13 L13-12 L12-11 U11-6 U6-1 R1-2 D2-7 L7-6 D6-11 R11-12"/>
    </vehicle>
    <vehicle id="6.0" type="car01" depart="0.00" color="yellow">
        <route edges="U21-16 R16-17 R17-18 R18-19 R19-20 U20-15 L15-14 L14-13 L13-12 L12-11 D11-16 D16-21 R21-22 U22-17 U17-12 R12-13 R13-14 D14-19 L19-18 L18-17 D17-22 R22-23 U23-18 U18-13 U13-8 U8-3 R3-4 D4-9 D9-14 R14-15 U15-10 L10-9 U9-4 L4-3 D3-8 D8-13 D13-18 D18-23 L23-22 L22-21 U21-16 U16-11 R11-12 R12-13 U13-8 U8-3 L3-2 D2-7 D7-12 L12-11 U11-6 U6-1 R1-2 R2-3 D3-8 D8-13 D13-18 D18-23 R23-24 R24-25 U25-20 U20-15 U15-10 L10-9 D9-14"/>
    </vehicle>
    <vehicle id="7.0" type="car01" depart="0.00" color="white">
        <route edges="U25-20 L20-19 D19-24 L24-23 U23-18 L18-17 L17-16 U16-11 U11-6 U6-1 R1-2 R2-3 D3-8 D8-13 D13-18 D18-23 R23-24 U24-19 R19-20 U20-15 U15-10 U10-5 L5-4 L4-3 L3-2 D2-7 L7-6 D6-11 R11-12 D12-17 R17-18 R18-19 U19-14 U14-9 R9-10 D10-15 L15-14 D14-19 L19-18 U18-13 L13-12 L12-11 D11-16 R16-17 U17-12 U12-7 R7-8 R8-9 U9-4 R4-5 D5-10 L10-9 L9-8 L8-7 U7-2 L2-1 D1-6 R6-7 D7-12 R12-13 U13-8 U8-3 R3-4 D4-9 D9-14 L14-13"/>
    </vehicle>
    <vehicle id="8.0" type="car01" depart="0.00" color="blue">
        <route edges="R11-12 R12-13 R13-14 D14-19 D19-24 R24-25 U25-20 L20-19 L19-18 L18-17 D17-22 R22-23 U23-18 R18-19 U19-14 L14-13 U13-8 U8-3 R3-4 R4-5 D5-10 L10-9 L9-8 L8-7 U7-2 L2-1 D1-6 D6-11 D11-16 D16-21 R21-22 U22-17 U17-12 U12-7 R7-8 D8-13 D13-18 D18-23 L23-22 L22-21 U21-16 U16-11 U11-6 U6-1 R1-2 R2-3 D3-8 R8-9 U9-4 L4-3 L3-2 D2-7 L7-6"/>
    </vehicle>
    <vehicle id="9.0" type="car01" depart="0.00" color="green">
        <route edges="R16-17 R17-18 R18-19 R19-20 D20-25 L25-24 U24-19 L19-18 U18-13 R13-14 R14-15 D15-20 L20-19 U19-14 U14-9 R9-10 D10-15 L15-14 D14-19 D19-24 R24-25 U25-20 U20-15 U15-10 U10-5 L5-4 D4-9 D9-14 L14-13 D13-18 L18-17 U17-12 L12-11 U11-6 U6-1 R1-2 R2-3 R3-4 R4-5 D5-10 L10-9 U9-4 L4-3 D3-8 L8-7 D7-12 R12-13 U13-8 R8-9"/>
    </vehicle>
    <vehicle id="0.1" type="car01" depart="1.00" color="cyan">
        <route edges="R1-2 D2-7 D7-12 R12-13 R13-14 R14-15 D15-20 D20-25 L25-24 L24-23 L23-22 U22-17 R17-18 D18-23 R23-24 R24-25 U25-20 U20-15 L15-14 U14-9 L9-8 L8-7 U7-2 L2-1 D1-6 D6-11 R11-12 D12-17 D17-22 L22-21 U21-16 R16-17 U17-12 L12-11 D11-16 D16-21 R21-22 R22-23 U23-18 R18-19 U19-14 L14-13 D13-18 L18-17 L17-16 U16-11 U11-6 U6-1"/>
    </vehicle>
    <vehicle id="1.1" type="car01" depart="1.00" color="blue">
        <route edges="L5-4 D4-9 L9-8 U8-3 R3-4 R4-5 D5-10 L10-9 D9-14 R14-15 U15-10 U10-5 L5-4 L4-3 D3-8 D8-13 L13-12 L12-11 D11-16 D16-21 R21-22 U22-17 U17-12 U12-7 L7-6 U6-1 R1-2 R2-3 R3-4 D4-9 D9-14 L14-13 U13-8 U8-3 L3-2 D2-7 D7-12 R12-13 R13-14 R14-15 D15-20 L20-19 D19-24 R24-25 U25-20 U20-15 L15-14 L14-13 L13-12 L12-11 U11-6 R6-7 D7-12 D12-17 L17-16 U16-11 R11-12 R12-13 R13-14 U14-9 U9-4 R4-5 D5-10 D10-15 L15-14"/>
    </vehicle>
    <vehicle id="10.1" type="car01" depart="1.00" color="cyan">
        <route edges="L15-14 L14-13 L13-12 U12-7 U7-2 L2-1 D1-6 R6-7 D7-12 D12-17 D17-22 R22-23 R23-24 U24-19 R19-20 U20-15 U15-10 U10-5 L5-4 L4-3 L3-2 D2-7 R7-8 D8-13 D13-18 R18-19 D19-24 L24-23 L23-22 L22-21 U21-16 U16-11 R11-12 R12-13 U13-8 R8-9 U9-4 R4-5 D5-10 L10-9 L9-8 L8-7 L7-6 D6-11 D11-16 D16-21 R21-22 U22-17 R17-18 U18-13 R13-14 U14-9 R9-10 D10-15 D15-20 D20-25 L25-24"/>
    </vehicle>
    <vehicle id="11.1" type="car01" depart="1.00" color="red">
        <route edges="L20-19 D19-24 R24-25 U25-20 U20-15 U15-10 L10-9 D9-14 L14-13 D13-18 R18-19 R19-20 D20-25 L25-24 U24-19 L19-18 L18-17 L17-16 U16-11 U11-6 U6-1 R1-2 R2-3 D3-8 L8-7 L7-6 D6-11 R11-12 U12-7 U7-2 L2-1 D1-6 R6-7 R7-8 D8-13 R13-14 D14-19 L19-18 L18-17 L17-16 D16-21 R21-22 U22-17 U17-12 U12-7 U7-2 R2-3 D3-8 D8-13 L13-12 L12-11 U11-6 U6-1 R1-2 D2-7 L7-6 D6-11 R11-12 R12-13 R13-14 U14-9 U9-4 R4-5 D5-10 D10-15 L15-14 D14-19 D19-24"/>
    </vehicle>
    <vehicle id="2.1" type="car01" depart="1.00" color="green">
        <route edges="R21-22 R22-23 R23-24 R24-25 U25-20 L20-19 L19-18 L18-17 L17-16 U16-11 U11-6 R6-7 D7-12 L12-11 D11-16 D16-21 R21-22 U22-17 U17-12 U12-7 U7-2 R2-3 D3-8 D8-13 L13-12 L12-11 U11-6 U6-1 R1-2 D2-7 L7-6 D6-11 R11-12 R12-13 R13-14 U14-9 U9-4 R4-5 D5-10 D10-15 L15-14 D14-19 D19-24 L24-23 U23-18 L18-17 U17-12 U12-7 L7-6 U6-1 R1-2 D2-7 R7-8 U8-3 R3-4 D4-9 D9-14 L14-13 L13-12 L12-11 U11-6 R6-7 R7-8 R8-9"/>
    </vehicle>
    <vehicle id="3.1" type="car01" depart="1.00" color="cyan">
        <route edges="L25-24 U24-19 U19-14 U14-9 R9-10 U10-5 L5-4 L4-3 L3-2 L2-1 D1-6 R6-7 R7-8 R8-9 U9-4 R4-5 D5-10 L10-9 L9-8 D8-13 L13-12 D12-17 D17-22 L22-21 U21-16 R16-17 R17-18 R18-19 D19-24 R24-25 U25-20 L20-19 L19-18 D18-23 L23-22 U22-17 L17-16 D16-21 R21-22 R22-23 U23-18 U18-13 U13-8 U8-3 R3-4 D4-9 D9-14 L14-13 D13-18 L18-17 U17-12 R12-13 R13-14 R14-15 D15-20 D20-25"/>
    </vehicle>
    <vehicle id="4.1" type="car01" depart="1.00" color="red">
        <route edges="D1-6 R6-7 R7-8 D8-13 D13-18 D18-23 R23-24 U24-19 U19-14 L14-13 L13-12 U12-7 L7-6 D6-11 D11-16 D16-21 R21-22 R22-23 U23-18 U18-13 U13-8 U8-3 L3-2 L2-1 D1-6 R6-7 R7-8 U8-3 R3-4 D4-9 D9-14 R14-15 U15-10 L10-9 L9-8 L8-7 D7-12 D12-17 D17-22 L22-21 U21-16 R16-17 R17-18 R18-19 D19-24 R24-25 U25-20 L20-19 U19-14 U14-9 U9-4 R4-5 D5-10 D10-15 L15-14 D14-19 L19-18 L18-17 L17-16 D16-21 R21-22 U22-17 U17-12 U12-7 U7-2 R2-3 D3-8 D8-13 L13-12 L12-11 U11-6 U6-1"/>
    </vehicle>
    <vehicle id="5.1" type="car01" depart="1.00" color="magenta">
        <route edges="D5-10 L10-9 D9-14 D14-19 D19-24 R24-25 U25-20 U20-15 L15-14 U14-9 U9-4 R4-5 D5-10 D10-15 L15-14 D14-19 D19-24 L24-23 U23-18 L18-17 U17-12 U12-7 L7-6 U6-1 R1-2 D2-7 R7-8 U8-3 R3-4 D4-9 D9-14 L14-13 L13-12 L12-11 U11-6 R6-7 R7-8 R8-9 R9-10 D10-15 L15-14 L14-13 U13-8 L8-7 U7-2 L2-1 D1-6 D6-11 R11-12 U12-7 L7-6 U6-1 R1-2 R2-3 R3-4 D4-9 D9-14 R14-15 U15-10 L10-9 U9-4"/>
    </vehicle>
    <vehicle id="6.1" type="car01" depart="1.00" color="yellow">
        <route edges="U21-16 R16-17 U17-12 R12-13 U13-8 U8-3 L3-2 L2-1 D1-6 R6-7 R7-8 R8-9 R9-10 U10-5 L5-4 D4-9 D9-14 R14-15 U15-10 L10-9 U9-4 L4-3 D3-8 D8-13 D13-18 R18-19 U19-14 L14-13 L13-12 L12-11 U11-6 U6-1 R1-2 D2-7 D7-12 D12-17 D17-22 R22-23 U23-18 L18-17 L17-16 U16-11 R11-12 U12-7 U7-2 R2-3 R3-4 R4-5 D5-10 D10-15 D15-20 L20-19 D19-24 R24-25 U25-20 U20-15 L15-14 U14-9 L9-8 L8-7 L7-6 D6-11 D11-16 D16-21 R21-22 U22-17 R17-18 D18-23 L23-22 L22-21"/>
    </vehicle>
    <vehicle id="7.1" type="car01" depart="1.00" color="white">
        <route edges="U25-20 U20-15 U15-10 L10-9 L9-8 L8-7 L7-6 D6-11 D11-16 R16-17 R17-18 R18-19 R19-20 D20-25 L25-24 L24-23 L23-22 L22-21 U21-16 U16-11 R11-12 R12-13 D13-18 D18-23 R23-24 U24-19 U19-14 L14-13 L13-12 L12-11 U11-6 U6-1 R1-2 D2-7 D7-12 D12-17 D17-22 R22-23 U23-18 L18-17 U17-12 U12-7 R7-8 D8-13 R13-14 R14-15 D15-20 L20-19 D19-24 R24-25 U25-20 U20-15 U15-10 L10-9 D9-14 R14-15 D15-20 L20-19 D19-24 L24-23 U23-18 R18-19 R19-20 D20-25 L25-24 U24-19"/>
    </vehicle>
    <vehicle id="8.1" type="car01" depart="1.00" color="blue">
        <route edges="R11-12 D12-17 D17-22 R22-23 U23-18 L18-17 L17-16 U16-11 U11-6 R6-7 R7-8 R8-9 R9-10 D10-15 D15-20 D20-25 L25-24 L24-23 L23-22 L22-21 U21-16 R16-17 U17-12 L12-11 D11-16 D16-21 R21-22 U22-17 R17-18 D18-23 R23-24 U24-19 R19-20 U20-15 L15-14 L14-13 L13-12 U12-7 U7-2 R2-3 D3-8 L8-7 D7-12 R12-13 R13-14 R14-15 U15-10 U10-5 L5-4 L4-3 L3-2 D2-7 L7-6 D6-11"/>
    </vehicle>
    <vehicle id="9.1" type="car01" depart="1.00" color="green">
        <route edges="R16-17 D17-22 L22-21 U21-16 U16-11 R11-12 U12-7 R7-8 R8-9 U9-4 R4-5 D5-10 L10-9 L9-8 D8-13 D13-18 D18-23 R23-24 R24-25 U25-20 U20-15 L15-14 U14-9 R9-10 D10-15 D15-20 D20-25 L25-24 U24-19 U19-14 L14-13 U13-8 U8-3 R3-4 D4-9 D9-14 D14-19 R19-20 U20-15 L15-14 U14-9 U9-4 R4-5 D5-10 L10-9 L9-8 U8-3 R3-4 D4-9 D9-14 L14-13 L13-12 L12-11 U11-6 R6-7 R7-8 D8-13 D13-18 R18-19 U19-14 U14-9 R9-10 U10-5 L5-4 L4-3 L3-2"/>
    </vehicle>
</routes>
