<?xml version="1.0" encoding="UTF-8"?>

<!-- generated on Wed Dec 10 19:12:27 2014 by SUMO duarouter Version 0.21.0



-->

<routes>

    <vType id="type1" length="5" minGap="2" vClass="passenger" guiShape="passenger">
        <carFollowing-Krauss/>
    </vType>

    <vehicle id="0" type="type1" depart="0.00">
        <route edges="U15-11 R11-12 U12-8 L8-7 D7-11"/>
    </vehicle>
    <vehicle id="flow1.0" type="type1" depart="0.00">
        <route edges="R13-14 U14-10 U10-6 R6-7 R7-8 U8-4"/>
    </vehicle>
    <vehicle id="flow2.0" type="type1" depart="0.00">
        <route edges="R1-2 R2-3 D3-7 R7-8 D8-12 D12-16"/>
    </vehicle>
    <vehicle id="1" type="type1" depart="1.00">
        <route edges="U13-9 R9-10 D10-14"/>
    </vehicle>
    <vehicle id="2" type="type1" depart="2.00">
        <route edges="U9-5 R5-6 R6-7 D7-11"/>
    </vehicle>
    <vehicle id="3" type="type1" depart="3.00">
        <route edges="D10-14 R14-15 U15-11 U11-7 U7-3 R3-4"/>
    </vehicle>
    <vehicle id="4" type="type1" depart="4.00">
        <route edges="D2-6 R6-7 U7-3 L3-2 L2-1"/>
    </vehicle>
    <vehicle id="5" type="type1" depart="5.00">
        <route edges="L12-11 L11-10 L10-9 U9-5 U5-1"/>
    </vehicle>
    <vehicle id="6" type="type1" depart="6.00">
        <route edges="U6-2 R2-3 D3-7"/>
    </vehicle>
    <vehicle id="7" type="type1" depart="7.00">
        <route edges="U9-5"/>
    </vehicle>
    <vehicle id="8" type="type1" depart="8.00">
        <route edges="L3-2 D2-6 D6-10 D10-14 R14-15 R15-16"/>
    </vehicle>
    <vehicle id="9" type="type1" depart="9.00">
        <route edges="L8-7 L7-6 D6-10 D10-14 R14-15"/>
    </vehicle>
    <vehicle id="10" type="type1" depart="10.00">
        <route edges="U10-6 R6-7 U7-3"/>
    </vehicle>
    <vehicle id="11" type="type1" depart="11.00">
        <route edges="D5-9 R9-10 U10-6 R6-7 U7-3"/>
    </vehicle>
    <vehicle id="12" type="type1" depart="12.00">
        <route edges="D2-6 L6-5 U5-1 R1-2 R2-3 D3-7"/>
    </vehicle>
    <vehicle id="13" type="type1" depart="13.00">
        <route edges="L11-10 U10-6 R6-7 D7-11 D11-15 L15-14"/>
    </vehicle>
    <vehicle id="14" type="type1" depart="14.00">
        <route edges="U14-10 R10-11 D11-15 L15-14"/>
    </vehicle>
    <vehicle id="15" type="type1" depart="15.00">
        <route edges="R9-10 R10-11 R11-12 D12-16"/>
    </vehicle>
    <vehicle id="16" type="type1" depart="16.00">
        <route edges="U5-1 R1-2 D2-6 D6-10 D10-14 R14-15 U15-11"/>
    </vehicle>
    <vehicle id="17" type="type1" depart="17.00">
        <route edges="D11-15 R15-16 U16-12"/>
    </vehicle>
    <vehicle id="18" type="type1" depart="18.00">
        <route edges="L11-10 L10-9 U9-5 R5-6 D6-10"/>
    </vehicle>
    <vehicle id="19" type="type1" depart="19.00">
        <route edges="R1-2 D2-6 L6-5 U5-1"/>
    </vehicle>
    <vehicle id="20" type="type1" depart="20.00">
        <route edges="R15-16 U16-12 L12-11 U11-7 R7-8 D8-12 D12-16"/>
    </vehicle>
    <vehicle id="21" type="type1" depart="21.00">
        <route edges="D4-8 L8-7 U7-3 L3-2 L2-1 D1-5"/>
    </vehicle>
    <vehicle id="22" type="type1" depart="22.00">
        <route edges="L12-11 D11-15 L15-14"/>
    </vehicle>
    <vehicle id="23" type="type1" depart="23.00">
        <route edges="U9-5 R5-6"/>
    </vehicle>
    <vehicle id="24" type="type1" depart="24.00">
        <route edges="D5-9 R9-10 R10-11 U11-7 L7-6 D6-10"/>
    </vehicle>
    <vehicle id="25" type="type1" depart="25.00">
        <route edges="D8-12 L12-11 U11-7"/>
    </vehicle>
    <vehicle id="26" type="type1" depart="26.00">
        <route edges="R1-2 D2-6 L6-5 D5-9 D9-13"/>
    </vehicle>
    <vehicle id="27" type="type1" depart="27.00">
        <route edges="L3-2 D2-6 R6-7 D7-11 R11-12"/>
    </vehicle>
    <vehicle id="28" type="type1" depart="28.00">
        <route edges="U15-11 R11-12 D12-16"/>
    </vehicle>
    <vehicle id="29" type="type1" depart="29.00">
        <route edges="D9-13 R13-14 U14-10 U10-6 R6-7 R7-8 D8-12"/>
    </vehicle>
    <vehicle id="30" type="type1" depart="30.00">
        <route edges="R14-15 U15-11 L11-10 D10-14"/>
    </vehicle>
    <vehicle id="31" type="type1" depart="31.00">
        <route edges="D7-11 L11-10 L10-9 U9-5 U5-1 R1-2"/>
    </vehicle>
    <vehicle id="32" type="type1" depart="32.00">
        <route edges="R14-15 U15-11 L11-10 U10-6"/>
    </vehicle>
    <vehicle id="33" type="type1" depart="33.00">
        <route edges="L15-14 U14-10 L10-9 U9-5 U5-1"/>
    </vehicle>
    <vehicle id="34" type="type1" depart="34.00">
        <route edges="L12-11 U11-7"/>
    </vehicle>
    <vehicle id="35" type="type1" depart="35.00">
        <route edges="U13-9 R9-10 R10-11 R11-12"/>
    </vehicle>
    <vehicle id="36" type="type1" depart="36.00">
        <route edges="L15-14 U14-10 R10-11"/>
    </vehicle>
    <vehicle id="37" type="type1" depart="37.00">
        <route edges="U12-8 L8-7 L7-6 L6-5 D5-9"/>
    </vehicle>
    <vehicle id="38" type="type1" depart="38.00">
        <route edges="D7-11 R11-12 U12-8"/>
    </vehicle>
    <vehicle id="39" type="type1" depart="39.00">
        <route edges="U11-7 L7-6 L6-5 U5-1"/>
    </vehicle>
    <vehicle id="40" type="type1" depart="40.00">
        <route edges="U13-9 U9-5 R5-6"/>
    </vehicle>
    <vehicle id="41" type="type1" depart="41.00">
        <route edges="R7-8 D8-12 L12-11 U11-7 L7-6 D6-10"/>
    </vehicle>
    <vehicle id="42" type="type1" depart="42.00">
        <route edges="L8-7 D7-11 R11-12 U12-8 U8-4"/>
    </vehicle>
    <vehicle id="43" type="type1" depart="43.00">
        <route edges="D4-8 L8-7 D7-11 D11-15 L15-14 L14-13"/>
    </vehicle>
    <vehicle id="44" type="type1" depart="44.00">
        <route edges="R3-4 D4-8 D8-12 D12-16 L16-15 U15-11"/>
    </vehicle>
    <vehicle id="45" type="type1" depart="45.00">
        <route edges="L14-13 U13-9 U9-5 R5-6 D6-10 L10-9"/>
    </vehicle>
    <vehicle id="46" type="type1" depart="46.00">
        <route edges="R6-7 D7-11 L11-10 U10-6 U6-2"/>
    </vehicle>
    <vehicle id="47" type="type1" depart="47.00">
        <route edges="L12-11 U11-7 L7-6 U6-2 R2-3"/>
    </vehicle>
    <vehicle id="48" type="type1" depart="48.00">
        <route edges="U15-11 U11-7 R7-8 U8-4"/>
    </vehicle>
    <vehicle id="49" type="type1" depart="49.00">
        <route edges="R3-4 D4-8 L8-7 L7-6 U6-2 R2-3"/>
    </vehicle>
    <vehicle id="50" type="type1" depart="50.00">
        <route edges="R3-4 D4-8 L8-7 U7-3 L3-2 D2-6"/>
    </vehicle>
    <vehicle id="flow1.1" type="type1" depart="50.00">
        <route edges="R13-14 U14-10 U10-6 R6-7 R7-8 U8-4"/>
    </vehicle>
    <vehicle id="flow2.1" type="type1" depart="50.00">
        <route edges="R1-2 R2-3 D3-7 R7-8 D8-12 D12-16"/>
    </vehicle>
    <vehicle id="51" type="type1" depart="51.00">
        <route edges="D12-16 L16-15 U15-11 U11-7 L7-6 U6-2 R2-3"/>
    </vehicle>
    <vehicle id="52" type="type1" depart="52.00">
        <route edges="L3-2 D2-6 L6-5"/>
    </vehicle>
    <vehicle id="53" type="type1" depart="53.00">
        <route edges="R7-8 D8-12 L12-11 U11-7 U7-3 R3-4"/>
    </vehicle>
    <vehicle id="54" type="type1" depart="54.00">
        <route edges="R3-4 D4-8 L8-7 L7-6 U6-2 R2-3"/>
    </vehicle>
    <vehicle id="55" type="type1" depart="55.00">
        <route edges="R3-4 D4-8 L8-7 D7-11 R11-12"/>
    </vehicle>
    <vehicle id="56" type="type1" depart="56.00">
        <route edges="U9-5 R5-6 R6-7 D7-11 R11-12 U12-8"/>
    </vehicle>
    <vehicle id="57" type="type1" depart="57.00">
        <route edges="U7-3 L3-2 D2-6 L6-5 D5-9 R9-10 U10-6"/>
    </vehicle>
    <vehicle id="58" type="type1" depart="58.00">
        <route edges="R9-10 R10-11 R11-12 D12-16"/>
    </vehicle>
    <vehicle id="59" type="type1" depart="59.00">
        <route edges="L16-15 L15-14 U14-10 R10-11"/>
    </vehicle>
    <vehicle id="60" type="type1" depart="60.00">
        <route edges="U8-4 L4-3 D3-7 D7-11 D11-15 L15-14 L14-13"/>
    </vehicle>
    <vehicle id="61" type="type1" depart="61.00">
        <route edges="U16-12 U12-8 L8-7 U7-3 R3-4"/>
    </vehicle>
    <vehicle id="62" type="type1" depart="62.00">
        <route edges="L4-3"/>
    </vehicle>
    <vehicle id="63" type="type1" depart="63.00">
        <route edges="D10-14 L14-13 U13-9 R9-10 U10-6"/>
    </vehicle>
    <vehicle id="64" type="type1" depart="64.00">
        <route edges="D6-10 R10-11 U11-7 L7-6 L6-5 D5-9"/>
    </vehicle>
    <vehicle id="65" type="type1" depart="65.00">
        <route edges="D3-7 L7-6 D6-10 L10-9"/>
    </vehicle>
    <vehicle id="66" type="type1" depart="66.00">
        <route edges="R5-6 U6-2"/>
    </vehicle>
    <vehicle id="67" type="type1" depart="67.00">
        <route edges="D1-5 R5-6 D6-10 L10-9 U9-5"/>
    </vehicle>
    <vehicle id="68" type="type1" depart="68.00">
        <route edges="D1-5 R5-6 R6-7 D7-11"/>
    </vehicle>
    <vehicle id="69" type="type1" depart="69.00">
        <route edges="L6-5 D5-9 R9-10 U10-6 U6-2"/>
    </vehicle>
    <vehicle id="70" type="type1" depart="70.00">
        <route edges="U6-2 R2-3 R3-4"/>
    </vehicle>
</routes>
