<?xml version="1.0" encoding="UTF-8"?>

<!-- generated on Tue Oct  6 18:57:37 2015 by SUMO netconvert Version 0.22.0
<?xml version="1.0" encoding="UTF-8"?>

<configuration xmlns:xsi="http://www.w3.org/2001/XMLSchema-instance" xsi:noNamespaceSchemaLocation="http://sumo.dlr.de/xsd/netconvertConfiguration.xsd">

    <input>
        <type-files value="/home/william/Simulators/sumo-0.22.0/data/typemap/osmNetconvertUrbanDe.typ.xml"/>
        <osm-files value="0curitiba4.osm"/>
    </input>

    <output>
        <output-file value="4curitiba4.net.xml"/>
        <output.street-names value="true"/>
    </output>

    <projection>
        <proj.utm value="true"/>
    </projection>

    <tls_building>
        <tls.join value="true"/>
    </tls_building>

    <edge_removal>
        <remove-edges.by-vclass value="bicycle,pedestrian,delivery"/>
        <remove-edges.by-type value="railway.rail,highway.pedestrian,highway.footway,highway.cycleway"/>
        <remove-edges.isolated value="true"/>
    </edge_removal>

    <processing>
        <no-turnarounds value="true"/>
        <roundabouts.guess value="true"/>
        <junctions.join value="true"/>
    </processing>

    <building_defaults>
        <default.speed value="16.667"/>
    </building_defaults>

</configuration>
-->

<net version="0.13" xmlns:xsi="http://www.w3.org/2001/XMLSchema-instance" xsi:noNamespaceSchemaLocation="http://sumo.dlr.de/xsd/net_file.xsd">

    <location netOffset="-671140.63,2816365.00" convBoundary="0.00,0.00,4454.13,3634.96" origBoundary="-49.298047,-25.466189,-49.221267,-25.410404" projParameter="+proj=utm +zone=22 +ellps=WGS84 +datum=WGS84 +units=m +no_defs"/>

    <edge id=":1226991198_0" function="internal">
        <lane id=":1226991198_0_0" index="0" speed="13.89" length="0.10" shape="3284.64,2050.45 3284.63,2050.45"/>
        <lane id=":1226991198_0_1" index="1" speed="13.89" length="0.10" shape="3285.88,2047.39 3285.89,2047.40"/>
    </edge>
    <edge id=":1226991247_0" function="internal">
        <lane id=":1226991247_0_0" index="0" speed="13.89" length="0.47" shape="3085.48,2619.96 3084.71,2619.65"/>
        <lane id=":1226991247_0_1" index="1" speed="13.89" length="0.47" shape="3086.59,2616.85 3086.04,2616.63"/>
        <lane id=":1226991247_0_2" index="2" speed="13.89" length="0.47" shape="3087.70,2613.74 3087.38,2613.61"/>
        <lane id=":1226991247_0_3" index="3" speed="13.89" length="0.47" shape="3088.81,2610.63 3088.71,2610.59"/>
    </edge>
    <edge id=":1228410682_0" function="internal">
        <lane id=":1228410682_0_0" index="0" speed="13.89" length="0.49" shape="2308.80,2036.38 2308.90,2036.17"/>
        <lane id=":1228410682_0_1" index="1" speed="13.89" length="0.49" shape="2311.68,2038.00 2311.99,2037.33"/>
    </edge>
    <edge id=":1228410692_0" function="internal">
        <lane id=":1228410692_0_0" index="0" speed="13.89" length="0.10" shape="2073.62,2299.53 2073.62,2299.53"/>
    </edge>
    <edge id=":1228410724_0" function="internal">
        <lane id=":1228410724_0_0" index="0" speed="13.89" length="0.10" shape="1750.65,2621.46 1750.56,2621.43"/>
        <lane id=":1228410724_0_1" index="1" speed="13.89" length="0.10" shape="1751.79,2618.36 1751.87,2618.40"/>
    </edge>
    <edge id=":1228410773_0" function="internal">
        <lane id=":1228410773_0_0" index="0" speed="13.89" length="16.06" shape="3035.50,1946.44 3031.10,1944.62 3028.08,1943.38 3025.06,1942.16 3020.64,1940.39"/>
        <lane id=":1228410773_0_1" index="1" speed="13.89" length="16.06" shape="3036.76,1943.39 3032.35,1941.56 3029.33,1940.32 3026.30,1939.10 3021.86,1937.33"/>
    </edge>
    <edge id=":1228410773_2" function="internal">
        <lane id=":1228410773_2_0" index="0" speed="13.89" length="4.08" shape="3036.76,1943.39 3033.04,1941.69"/>
        <lane id=":1228410773_2_1" index="1" speed="13.89" length="4.08" shape="3036.76,1943.39 3033.07,1941.65"/>
    </edge>
    <edge id=":1228410773_5" function="internal">
        <lane id=":1228410773_5_0" index="0" speed="13.89" length="9.97" shape="3033.04,1941.69 3031.58,1941.02 3028.06,1938.91 3026.20,1937.04 3026.00,1935.43"/>
    </edge>
    <edge id=":1228410773_6" function="internal">
        <lane id=":1228410773_6_0" index="0" speed="13.89" length="6.85" shape="3033.07,1941.65 3032.91,1941.58 3030.34,1939.86 3029.05,1938.25 3029.04,1936.73"/>
    </edge>
    <edge id=":1228410773_4" function="internal">
        <lane id=":1228410773_4_0" index="0" speed="13.89" length="12.34" shape="3035.10,1939.33 3032.91,1941.83 3030.16,1942.48 3027.40,1943.12 3025.15,1945.60"/>
    </edge>
    <edge id=":1228410781_0" function="internal">
        <lane id=":1228410781_0_0" index="0" speed="16.67" length="0.10" shape="2268.91,2102.60 2268.96,2102.64"/>
        <lane id=":1228410781_0_1" index="1" speed="16.67" length="0.10" shape="2271.25,2100.27 2271.25,2100.27"/>
        <lane id=":1228410781_0_2" index="2" speed="16.67" length="0.10" shape="2273.60,2097.95 2273.59,2097.94"/>
    </edge>
    <edge id=":1228410784_0" function="internal">
        <lane id=":1228410784_0_0" index="0" speed="16.67" length="9.82" shape="2265.34,2099.14 2258.27,2092.35"/>
        <lane id=":1228410784_0_1" index="1" speed="16.67" length="9.82" shape="2267.63,2096.77 2260.55,2089.96"/>
        <lane id=":1228410784_0_2" index="2" speed="16.67" length="9.82" shape="2269.93,2094.40 2262.83,2087.57"/>
    </edge>
    <edge id=":1228410784_3" function="internal">
        <lane id=":1228410784_3_0" index="0" speed="15.28" length="5.03" shape="2269.93,2094.40 2269.08,2093.30 2268.80,2092.21 2269.07,2091.11 2269.91,2090.01"/>
    </edge>
    <edge id=":1228410784_4" function="internal">
        <lane id=":1228410784_4_0" index="0" speed="15.28" length="7.80" shape="2258.28,2096.73 2259.14,2095.63 2259.42,2094.54 2259.13,2093.44 2258.27,2092.35"/>
        <lane id=":1228410784_4_1" index="1" speed="15.28" length="7.80" shape="2260.57,2099.11 2262.36,2096.82 2262.95,2094.53 2262.35,2092.24 2260.55,2089.96"/>
    </edge>
    <edge id=":1228410784_6" function="internal">
        <lane id=":1228410784_6_0" index="0" speed="13.89" length="13.56" shape="2260.57,2099.11 2263.04,2096.02 2264.10,2093.41 2265.16,2090.79 2267.59,2087.66"/>
    </edge>
    <edge id=":1228428680_0" function="internal">
        <lane id=":1228428680_0_0" index="0" speed="13.89" length="0.45" shape="3800.76,2028.94 3800.73,2029.62"/>
        <lane id=":1228428680_0_1" index="1" speed="13.89" length="0.45" shape="3797.46,2029.04 3797.45,2029.26"/>
    </edge>
    <edge id=":1229469415_0" function="internal">
        <lane id=":1229469415_0_0" index="0" speed="13.89" length="1.87" shape="3069.37,2707.44 3068.45,2707.32"/>
        <lane id=":1229469415_0_1" index="1" speed="13.89" length="1.87" shape="3070.74,2704.44 3067.95,2704.06"/>
    </edge>
    <edge id=":1229480868_0" function="internal">
        <lane id=":1229480868_0_0" index="0" speed="13.89" length="0.21" shape="3020.48,2822.22 3020.79,2822.23"/>
        <lane id=":1229480868_0_1" index="1" speed="13.89" length="0.21" shape="3020.46,2825.52 3020.56,2825.52"/>
    </edge>
    <edge id=":1229480871_0" function="internal">
        <lane id=":1229480871_0_0" index="0" speed="16.67" length="2.21" shape="2981.00,2958.08 2982.96,2957.91"/>
        <lane id=":1229480871_0_1" index="1" speed="16.67" length="2.21" shape="2981.25,2961.37 2983.70,2961.13"/>
    </edge>
    <edge id=":1229480887_0" function="internal">
        <lane id=":1229480887_0_0" index="0" speed="11.11" length="0.36" shape="2970.36,3059.27 2970.19,3059.31"/>
        <lane id=":1229480887_0_1" index="1" speed="11.11" length="0.36" shape="2969.72,3056.03 2969.19,3056.17"/>
    </edge>
    <edge id=":1229548260_0" function="internal">
        <lane id=":1229548260_0_0" index="0" speed="13.89" length="0.10" shape="1409.24,2731.13 1409.22,2731.15"/>
        <lane id=":1229548260_0_1" index="1" speed="13.89" length="0.10" shape="1406.25,2729.72 1406.25,2729.72"/>
        <lane id=":1229548260_0_2" index="2" speed="13.89" length="0.10" shape="1403.26,2728.32 1403.28,2728.29"/>
    </edge>
    <edge id=":1229554467_0" function="internal">
        <lane id=":1229554467_0_0" index="0" speed="13.89" length="0.10" shape="2472.28,1930.79 2472.18,1930.76"/>
        <lane id=":1229554467_0_1" index="1" speed="13.89" length="0.10" shape="2470.99,1933.83 2471.08,1933.87"/>
    </edge>
    <edge id=":1229554529_0" function="internal">
        <lane id=":1229554529_0_0" index="0" speed="13.89" length="0.10" shape="2549.43,1963.95 2549.40,1963.93"/>
        <lane id=":1229554529_0_1" index="1" speed="13.89" length="0.10" shape="2548.10,1966.97 2548.12,1966.97"/>
    </edge>
    <edge id=":1229556438_0" function="internal">
        <lane id=":1229556438_0_0" index="0" speed="13.89" length="5.48" shape="3092.54,1811.03 3091.06,1810.72 3089.82,1810.93 3088.82,1811.67 3088.07,1812.93"/>
    </edge>
    <edge id=":1229556438_1" function="internal">
        <lane id=":1229556438_1_0" index="0" speed="13.89" length="16.22" shape="3093.65,1807.93 3089.12,1806.30 3086.03,1805.14 3082.98,1803.91 3078.53,1802.05"/>
    </edge>
    <edge id=":1229556438_2" function="internal">
        <lane id=":1229556438_2_0" index="0" speed="13.89" length="11.17" shape="3093.65,1807.93 3089.70,1806.27 3087.08,1804.60 3085.80,1802.94 3085.86,1801.26"/>
    </edge>
    <edge id=":1229556438_3" function="internal">
        <lane id=":1229556438_3_0" index="0" speed="13.89" length="9.84" shape="3091.91,1803.90 3088.07,1812.93"/>
        <lane id=":1229556438_3_1" index="1" speed="13.89" length="9.84" shape="3088.89,1802.58 3085.02,1811.67"/>
    </edge>
    <edge id=":1229556438_5" function="internal">
        <lane id=":1229556438_5_0" index="0" speed="13.89" length="4.68" shape="3088.89,1802.58 3087.71,1803.76 3085.59,1804.07 3084.74,1803.91"/>
    </edge>
    <edge id=":1229556438_9" function="internal">
        <lane id=":1229556438_9_0" index="0" speed="13.89" length="6.49" shape="3084.74,1803.91 3082.53,1803.50 3078.53,1802.05"/>
    </edge>
    <edge id=":1229556438_6" function="internal">
        <lane id=":1229556438_6_0" index="0" speed="13.89" length="4.99" shape="3078.92,1809.15 3079.26,1807.82 3079.10,1806.71 3078.43,1805.80 3077.25,1805.09"/>
    </edge>
    <edge id=":1229556438_7" function="internal">
        <lane id=":1229556438_7_0" index="0" speed="13.89" length="9.97" shape="3078.92,1809.15 3080.06,1806.40 3080.85,1804.53 3081.65,1802.66 3082.84,1799.94"/>
        <lane id=":1229556438_7_1" index="1" speed="13.89" length="9.97" shape="3081.97,1810.41 3085.86,1801.26"/>
    </edge>
    <edge id=":1229561525_0" function="internal">
        <lane id=":1229561525_0_0" index="0" speed="13.89" length="0.11" shape="3711.47,2035.26 3711.49,2035.27"/>
        <lane id=":1229561525_0_1" index="1" speed="13.89" length="0.11" shape="3710.12,2038.27 3710.12,2038.27"/>
        <lane id=":1229561525_0_2" index="2" speed="13.89" length="0.11" shape="3708.73,2041.27 3708.85,2041.33"/>
    </edge>
    <edge id=":1229561554_0" function="internal">
        <lane id=":1229561554_0_0" index="0" speed="13.89" length="0.10" shape="3724.77,2014.30 3724.75,2014.30"/>
        <lane id=":1229561554_0_1" index="1" speed="13.89" length="0.10" shape="3724.70,2017.60 3724.72,2017.60"/>
    </edge>
    <edge id=":1229561590_0" function="internal">
        <lane id=":1229561590_0_0" index="0" speed="13.89" length="0.10" shape="3699.54,2054.41 3699.58,2054.43"/>
        <lane id=":1229561590_0_1" index="1" speed="13.89" length="0.10" shape="3700.83,2051.38 3700.82,2051.37"/>
    </edge>
    <edge id=":1229562811_0" function="internal">
        <lane id=":1229562811_0_0" index="0" speed="13.89" length="6.43" shape="3910.38,2043.15 3903.96,2043.12"/>
        <lane id=":1229562811_0_1" index="1" speed="13.89" length="6.43" shape="3910.41,2039.85 3903.96,2039.82"/>
    </edge>
    <edge id=":1229562811_2" function="internal">
        <lane id=":1229562811_2_0" index="0" speed="13.89" length="5.49" shape="3906.43,2046.69 3906.77,2045.13 3906.47,2044.02 3905.53,2043.35 3903.96,2043.12"/>
    </edge>
    <edge id=":1301295246_0" function="internal">
        <lane id=":1301295246_0_0" index="0" speed="13.89" length="0.76" shape="2855.64,2735.19 2855.23,2734.55"/>
    </edge>
    <edge id=":1301295259_0" function="internal">
        <lane id=":1301295259_0_0" index="0" speed="13.89" length="0.38" shape="2749.50,2693.42 2749.16,2693.60"/>
    </edge>
    <edge id=":1301304701_0" function="internal">
        <lane id=":1301304701_0_0" index="0" speed="13.89" length="2.62" shape="2328.98,2373.49 2329.54,2373.94 2330.11,2374.10 2330.69,2373.96 2331.27,2373.53"/>
    </edge>
    <edge id=":1301304706_0" function="internal">
        <lane id=":1301304706_0_0" index="0" speed="16.67" length="7.84" shape="2440.95,2271.88 2435.34,2266.41"/>
        <lane id=":1301304706_0_1" index="1" speed="16.67" length="7.84" shape="2443.25,2269.52 2437.65,2264.05"/>
        <lane id=":1301304706_0_2" index="2" speed="16.67" length="7.84" shape="2445.56,2267.16 2439.95,2261.68"/>
    </edge>
    <edge id=":1301304706_3" function="internal">
        <lane id=":1301304706_3_0" index="0" speed="15.28" length="6.39" shape="2445.51,2262.73 2444.36,2263.52 2443.05,2263.61 2441.58,2263.00 2439.95,2261.68"/>
    </edge>
    <edge id=":1301304706_4" function="internal">
        <lane id=":1301304706_4_0" index="0" speed="15.28" length="5.02" shape="2435.35,2270.79 2436.19,2269.69 2436.46,2268.60 2436.18,2267.50 2435.34,2266.41"/>
    </edge>
    <edge id=":1301304707_0" function="internal">
        <lane id=":1301304707_0_0" index="0" speed="13.89" length="0.10" shape="2172.08,2286.90 2172.09,2286.89"/>
    </edge>
    <edge id=":1301304709_0" function="internal">
        <lane id=":1301304709_0_0" index="0" speed="13.89" length="4.98" shape="2141.03,2317.52 2140.21,2318.60 2139.92,2319.70 2140.18,2320.79 2140.97,2321.90"/>
    </edge>
    <edge id=":1301304709_1" function="internal">
        <lane id=":1301304709_1_0" index="0" speed="13.89" length="5.35" shape="2136.50,2318.95 2140.97,2321.90"/>
    </edge>
    <edge id=":1301304711_0" function="internal">
        <lane id=":1301304711_0_0" index="0" speed="13.89" length="6.61" shape="2314.66,2503.09 2312.47,2509.33"/>
    </edge>
    <edge id=":1301304711_1" function="internal">
        <lane id=":1301304711_1_0" index="0" speed="13.89" length="6.10" shape="2310.44,2503.82 2311.59,2505.38 2312.31,2506.81 2312.61,2508.13 2312.47,2509.33"/>
    </edge>
    <edge id=":1301304712_0" function="internal">
        <lane id=":1301304712_0_0" index="0" speed="16.67" length="0.10" shape="2367.72,2200.42 2367.71,2200.41"/>
        <lane id=":1301304712_0_1" index="1" speed="16.67" length="0.10" shape="2370.03,2198.06 2370.03,2198.06"/>
        <lane id=":1301304712_0_2" index="2" speed="16.67" length="0.10" shape="2372.33,2195.70 2372.34,2195.71"/>
    </edge>
    <edge id=":1301304713_0" function="internal">
        <lane id=":1301304713_0_0" index="0" speed="13.89" length="0.43" shape="2447.79,2466.91 2447.96,2466.52"/>
    </edge>
    <edge id=":1301304714_0" function="internal">
        <lane id=":1301304714_0_0" index="0" speed="13.89" length="5.07" shape="2210.85,2245.81 2210.24,2246.95 2210.12,2248.09 2210.49,2249.23 2211.35,2250.37"/>
    </edge>
    <edge id=":1301304714_1" function="internal">
        <lane id=":1301304714_1_0" index="0" speed="13.89" length="6.01" shape="2210.85,2245.81 2206.96,2250.39"/>
    </edge>
    <edge id=":1319331816_0" function="internal">
        <lane id=":1319331816_0_0" index="0" speed="15.28" length="7.83" shape="3136.95,1430.73 3135.61,1430.41 3134.46,1430.61 3133.51,1431.34 3132.75,1432.59"/>
        <lane id=":1319331816_0_1" index="1" speed="15.28" length="7.83" shape="3138.19,1427.67 3135.46,1427.00 3133.14,1427.38 3131.22,1428.81 3129.72,1431.28"/>
    </edge>
    <edge id=":1319331816_2" function="internal">
        <lane id=":1319331816_2_0" index="0" speed="16.67" length="10.37" shape="3138.19,1427.67 3135.28,1427.05 3133.12,1427.41 3130.95,1427.80 3128.00,1427.25"/>
    </edge>
    <edge id=":1319331816_3" function="internal">
        <lane id=":1319331816_3_0" index="0" speed="13.89" length="9.65" shape="3136.48,1423.64 3132.75,1432.59"/>
        <lane id=":1319331816_3_1" index="1" speed="13.89" length="9.65" shape="3133.41,1422.41 3129.72,1431.28"/>
    </edge>
    <edge id=":1319331827_0" function="internal">
        <lane id=":1319331827_0_0" index="0" speed="16.67" length="12.96" shape="2958.10,1359.41 2954.53,1357.98 2952.08,1357.01 2949.64,1356.04 2946.06,1354.62"/>
        <lane id=":1319331827_0_1" index="1" speed="16.67" length="12.96" shape="2959.32,1356.34 2955.75,1354.92 2953.30,1353.94 2950.86,1352.97 2947.28,1351.55"/>
    </edge>
    <edge id=":1319331827_2" function="internal">
        <lane id=":1319331827_2_0" index="0" speed="15.28" length="5.06" shape="2947.71,1358.69 2948.10,1357.35 2947.95,1356.22 2947.27,1355.31 2946.06,1354.62"/>
    </edge>
    <edge id=":1319331827_3" function="internal">
        <lane id=":1319331827_3_0" index="0" speed="13.89" length="9.73" shape="2947.71,1358.69 2951.46,1349.87"/>
        <lane id=":1319331827_3_1" index="1" speed="13.89" length="9.73" shape="2950.71,1360.05 2954.53,1351.09"/>
        <lane id=":1319331827_3_2" index="2" speed="13.89" length="9.73" shape="2953.72,1361.40 2957.59,1352.32"/>
    </edge>
    <edge id=":1319331832_0" function="internal">
        <lane id=":1319331832_0_0" index="0" speed="15.28" length="5.03" shape="2551.08,1194.35 2549.74,1193.98 2548.62,1194.13 2547.71,1194.80 2547.01,1195.99"/>
    </edge>
    <edge id=":1319331835_0" function="internal">
        <lane id=":1319331835_0_0" index="0" speed="15.28" length="5.08" shape="2755.27,1282.98 2753.90,1282.68 2752.76,1282.87 2751.84,1283.55 2751.14,1284.73"/>
    </edge>
    <edge id=":1319331835_1" function="internal">
        <lane id=":1319331835_1_0" index="0" speed="16.67" length="6.37" shape="2755.27,1282.98 2749.28,1280.58"/>
        <lane id=":1319331835_1_1" index="1" speed="16.67" length="6.37" shape="2756.42,1279.89 2750.59,1277.55"/>
    </edge>
    <edge id=":1319331835_3" function="internal">
        <lane id=":1319331835_3_0" index="0" speed="13.89" length="9.57" shape="2754.62,1275.82 2751.14,1284.73"/>
    </edge>
    <edge id=":1319331835_4" function="internal">
        <lane id=":1319331835_4_0" index="0" speed="15.28" length="5.06" shape="2754.62,1275.82 2753.95,1277.05 2753.06,1277.75 2751.94,1277.91 2750.59,1277.55"/>
    </edge>
    <edge id=":1319331843_0" function="internal">
        <lane id=":1319331843_0_0" index="0" speed="15.28" length="7.57" shape="3600.15,1625.02 3600.45,1623.70 3600.25,1622.59 3599.57,1621.69 3598.40,1621.00"/>
        <lane id=":1319331843_0_1" index="1" speed="15.28" length="7.57" shape="3603.24,1626.19 3603.84,1623.47 3603.45,1621.20 3602.05,1619.36 3599.65,1617.95"/>
    </edge>
    <edge id=":1319331843_2" function="internal">
        <lane id=":1319331843_2_0" index="0" speed="13.89" length="10.07" shape="3606.33,1627.35 3606.43,1624.14 3604.91,1621.81 3603.47,1619.51 3603.81,1616.40"/>
        <lane id=":1319331843_2_1" index="1" speed="13.89" length="10.07" shape="3606.33,1627.35 3606.79,1617.82"/>
        <lane id=":1319331843_2_2" index="2" speed="13.89" length="10.07" shape="3606.33,1627.35 3609.77,1619.24"/>
    </edge>
    <edge id=":1319331844_0" function="internal">
        <lane id=":1319331844_0_0" index="0" speed="16.67" length="6.22" shape="2655.59,1240.20 2649.87,1237.71"/>
        <lane id=":1319331844_0_1" index="1" speed="16.67" length="6.22" shape="2656.90,1237.17 2651.20,1234.69"/>
    </edge>
    <edge id=":1319331844_2" function="internal">
        <lane id=":1319331844_2_0" index="0" speed="15.28" length="5.04" shape="2651.47,1241.82 2651.86,1240.50 2651.72,1239.37 2651.06,1238.45 2649.87,1237.71"/>
    </edge>
    <edge id=":1319331844_3" function="internal">
        <lane id=":1319331844_3_0" index="0" speed="13.89" length="9.56" shape="2651.47,1241.82 2655.27,1233.05"/>
    </edge>
    <edge id=":1319331846_0" function="internal">
        <lane id=":1319331846_0_0" index="0" speed="13.89" length="0.10" shape="2306.69,1092.45 2306.69,1092.44"/>
        <lane id=":1319331846_0_1" index="1" speed="13.89" length="0.10" shape="2303.61,1091.25 2303.61,1091.25"/>
        <lane id=":1319331846_0_2" index="2" speed="13.89" length="0.10" shape="2300.54,1090.05 2300.54,1090.05"/>
    </edge>
    <edge id=":1319331848_0" function="internal">
        <lane id=":1319331848_0_0" index="0" speed="15.28" length="5.03" shape="3372.12,1528.23 3370.78,1527.89 3369.65,1528.06 3368.74,1528.73 3368.04,1529.91"/>
    </edge>
    <edge id=":1319331848_1" function="internal">
        <lane id=":1319331848_1_0" index="0" speed="16.67" length="9.52" shape="3372.12,1528.23 3363.31,1524.59"/>
        <lane id=":1319331848_1_1" index="1" speed="16.67" length="9.52" shape="3373.37,1525.18 3364.58,1521.55"/>
    </edge>
    <edge id=":1319331848_3" function="internal">
        <lane id=":1319331848_3_0" index="0" speed="13.89" length="9.52" shape="3371.70,1521.12 3368.04,1529.91"/>
    </edge>
    <edge id=":1319331848_4" function="internal">
        <lane id=":1319331848_4_0" index="0" speed="15.28" length="4.74" shape="3371.70,1521.12 3370.80,1522.23 3369.31,1522.67 3367.56,1522.48"/>
    </edge>
    <edge id=":1319331848_7" function="internal">
        <lane id=":1319331848_7_0" index="0" speed="15.28" length="3.13" shape="3367.56,1522.48 3367.24,1522.44 3364.58,1521.55"/>
    </edge>
    <edge id=":1319331848_5" function="internal">
        <lane id=":1319331848_5_0" index="0" speed="15.28" length="5.01" shape="3364.99,1528.66 3365.32,1527.33 3365.16,1526.20 3364.49,1525.29 3363.31,1524.59"/>
    </edge>
    <edge id=":1319331848_6" function="internal">
        <lane id=":1319331848_6_0" index="0" speed="13.89" length="9.56" shape="3364.99,1528.66 3368.67,1519.84"/>
    </edge>
    <edge id=":1362859972_0" function="internal">
        <lane id=":1362859972_0_0" index="0" speed="15.28" length="5.25" shape="3388.56,1152.09 3387.13,1151.76 3385.94,1151.94 3384.99,1152.63 3384.28,1153.84"/>
    </edge>
    <edge id=":1362859972_1" function="internal">
        <lane id=":1362859972_1_0" index="0" speed="16.67" length="9.69" shape="3388.56,1152.09 3379.49,1148.58"/>
        <lane id=":1362859972_1_1" index="1" speed="16.67" length="9.69" shape="3389.73,1149.01 3380.70,1145.51"/>
        <lane id=":1362859972_1_2" index="2" speed="16.67" length="9.69" shape="3390.90,1145.92 3381.91,1142.44"/>
    </edge>
    <edge id=":1362859972_4" function="internal">
        <lane id=":1362859972_4_0" index="0" speed="15.28" length="7.94" shape="3390.90,1145.92 3388.34,1144.73 3386.69,1143.45 3385.95,1142.08 3386.12,1140.63"/>
    </edge>
    <edge id=":1362859972_5" function="internal">
        <lane id=":1362859972_5_0" index="0" speed="13.89" length="12.91" shape="3389.17,1141.89 3387.86,1145.06 3386.70,1147.86 3385.56,1150.67 3384.28,1153.84"/>
    </edge>
    <edge id=":1362859972_6" function="internal">
        <lane id=":1362859972_6_0" index="0" speed="15.28" length="8.01" shape="3389.17,1141.89 3388.26,1143.03 3386.74,1143.50 3384.63,1143.30 3381.91,1142.44"/>
    </edge>
    <edge id=":1362859972_7" function="internal">
        <lane id=":1362859972_7_0" index="0" speed="15.28" length="5.01" shape="3381.22,1152.61 3381.54,1151.27 3381.37,1150.16 3380.68,1149.26 3379.49,1148.58"/>
    </edge>
    <edge id=":1362859972_8" function="internal">
        <lane id=":1362859972_8_0" index="0" speed="13.89" length="12.94" shape="3381.22,1152.61 3382.50,1149.43 3383.65,1146.61 3384.81,1143.79 3386.12,1140.63"/>
    </edge>
    <edge id=":1362859973_0" function="internal">
        <lane id=":1362859973_0_0" index="0" speed="15.28" length="5.03" shape="3323.27,1304.67 3322.91,1306.01 3323.06,1307.13 3323.74,1308.03 3324.94,1308.73"/>
    </edge>
    <edge id=":1362859973_1" function="internal">
        <lane id=":1362859973_1_0" index="0" speed="15.28" length="5.10" shape="3316.12,1305.14 3317.45,1305.47 3318.57,1305.28 3319.51,1304.58 3320.25,1303.36"/>
    </edge>
    <edge id=":1362859973_2" function="internal">
        <lane id=":1362859973_2_0" index="0" speed="16.67" length="9.54" shape="3316.12,1305.14 3324.94,1308.73"/>
        <lane id=":1362859973_2_1" index="1" speed="16.67" length="9.54" shape="3314.86,1308.19 3323.71,1311.79"/>
    </edge>
    <edge id=":1362859976_0" function="internal">
        <lane id=":1362859976_0_0" index="0" speed="13.89" length="6.35" shape="3446.33,1340.50 3446.11,1341.89 3446.57,1343.12 3447.71,1344.21 3449.54,1345.15"/>
    </edge>
    <edge id=":1362859976_1" function="internal">
        <lane id=":1362859976_1_0" index="0" speed="13.89" length="9.81" shape="3446.33,1340.50 3444.16,1350.07"/>
    </edge>
    <edge id=":1362859976_2" function="internal">
        <lane id=":1362859976_2_0" index="0" speed="13.89" length="9.50" shape="3440.71,1341.61 3449.54,1345.15"/>
        <lane id=":1362859976_2_1" index="1" speed="13.89" length="9.50" shape="3439.49,1344.68 3448.31,1348.21"/>
    </edge>
    <edge id=":1362859976_4" function="internal">
        <lane id=":1362859976_4_0" index="0" speed="13.89" length="7.95" shape="3439.49,1344.68 3442.03,1345.91 3443.65,1347.23 3444.36,1348.61 3444.16,1350.07"/>
    </edge>
    <edge id=":1362859976_5" function="internal">
        <lane id=":1362859976_5_0" index="0" speed="13.89" length="7.90" shape="3441.14,1348.74 3442.07,1347.62 3443.57,1347.16 3445.65,1347.36 3448.31,1348.21"/>
    </edge>
    <edge id=":1362859981_0" function="internal">
        <lane id=":1362859981_0_0" index="0" speed="13.89" length="5.05" shape="3678.22,1436.88 3679.58,1437.22 3680.73,1437.08 3681.67,1436.44 3682.41,1435.32"/>
    </edge>
    <edge id=":1362859981_1" function="internal">
        <lane id=":1362859981_1_0" index="0" speed="13.89" length="14.18" shape="3678.22,1436.88 3682.23,1438.58 3684.85,1440.02 3687.24,1441.86 3690.53,1444.74"/>
        <lane id=":1362859981_1_1" index="1" speed="13.89" length="14.18" shape="3676.99,1439.94 3680.69,1441.51 3683.12,1442.86 3685.32,1444.56 3688.36,1447.22"/>
    </edge>
    <edge id=":1362859981_3" function="internal">
        <lane id=":1362859981_3_0" index="0" speed="13.89" length="12.71" shape="3677.99,1445.84 3679.71,1442.85 3681.57,1441.22 3683.51,1439.61 3685.41,1436.70"/>
        <lane id=":1362859981_3_1" index="1" speed="13.89" length="12.71" shape="3677.99,1445.84 3680.23,1442.91 3683.06,1441.91 3685.96,1440.94 3688.40,1438.09"/>
    </edge>
    <edge id=":1362859981_5" function="internal">
        <lane id=":1362859981_5_0" index="0" speed="13.89" length="5.07" shape="3681.06,1447.05 3682.81,1443.94 3683.74,1443.34"/>
        <lane id=":1362859981_5_1" index="1" speed="13.89" length="5.07" shape="3684.14,1448.25 3684.92,1446.87 3685.88,1446.23 3687.03,1446.35 3688.36,1447.22"/>
    </edge>
    <edge id=":1362859981_7" function="internal">
        <lane id=":1362859981_7_0" index="0" speed="13.89" length="7.63" shape="3683.74,1443.34 3684.98,1442.52 3687.55,1442.79 3690.53,1444.74"/>
    </edge>
    <edge id=":1362859983_0" function="internal">
        <lane id=":1362859983_0_0" index="0" speed="15.28" length="15.23" shape="3693.89,1447.68 3696.99,1450.75 3699.02,1453.04 3701.31,1454.91 3705.17,1456.71"/>
        <lane id=":1362859983_0_1" index="1" speed="15.28" length="15.23" shape="3691.71,1450.16 3695.09,1453.46 3697.32,1455.90 3699.83,1457.88 3704.02,1459.81"/>
    </edge>
    <edge id=":1362859983_2" function="internal">
        <lane id=":1362859983_2_0" index="0" speed="16.67" length="15.18" shape="3690.04,1453.68 3694.59,1454.33 3697.74,1454.68 3700.82,1455.29 3705.17,1456.71"/>
        <lane id=":1362859983_2_1" index="1" speed="16.67" length="15.18" shape="3689.47,1456.93 3693.85,1457.55 3696.88,1457.87 3699.84,1458.45 3704.02,1459.81"/>
    </edge>
    <edge id=":1362859985_0" function="internal">
        <lane id=":1362859985_0_0" index="0" speed="16.67" length="0.10" shape="2028.95,1159.26 2028.92,1159.25"/>
        <lane id=":1362859985_0_1" index="1" speed="16.67" length="0.10" shape="2027.69,1162.31 2027.71,1162.32"/>
    </edge>
    <edge id=":1362859986_0" function="internal">
        <lane id=":1362859986_0_0" index="0" speed="13.89" length="5.00" shape="3328.13,1293.17 3327.80,1294.51 3327.98,1295.62 3328.66,1296.52 3329.85,1297.21"/>
    </edge>
    <edge id=":1362859986_1" function="internal">
        <lane id=":1362859986_1_0" index="0" speed="13.89" length="9.65" shape="3328.13,1293.17 3324.40,1302.08"/>
    </edge>
    <edge id=":1362859986_2" function="internal">
        <lane id=":1362859986_2_0" index="0" speed="13.89" length="5.11" shape="3320.92,1293.64 3322.30,1293.98 3323.45,1293.81 3324.37,1293.13 3325.07,1291.94"/>
    </edge>
    <edge id=":1362859986_3" function="internal">
        <lane id=":1362859986_3_0" index="0" speed="13.89" length="9.61" shape="3320.92,1293.64 3329.85,1297.21"/>
        <lane id=":1362859986_3_1" index="1" speed="13.89" length="9.61" shape="3319.70,1296.71 3328.62,1300.27"/>
    </edge>
    <edge id=":1362859986_5" function="internal">
        <lane id=":1362859986_5_0" index="0" speed="13.89" length="7.94" shape="3319.70,1296.71 3322.24,1297.94 3323.87,1299.24 3324.59,1300.62 3324.40,1302.08"/>
    </edge>
    <edge id=":1362859986_6" function="internal">
        <lane id=":1362859986_6_0" index="0" speed="13.89" length="9.57" shape="3321.37,1300.76 3325.07,1291.94"/>
    </edge>
    <edge id=":1362859986_7" function="internal">
        <lane id=":1362859986_7_0" index="0" speed="13.89" length="7.99" shape="3321.37,1300.76 3322.30,1299.65 3323.81,1299.19 3325.92,1299.40 3328.62,1300.27"/>
    </edge>
    <edge id=":1363005160_0" function="internal">