<?xml version="1.0" encoding="UTF-8"?>

<!-- generated on Fri Oct 16 19:46:48 2015 by SUMO jtrrouter Version 0.22.0
<?xml version="1.0" encoding="UTF-8"?>

<configuration xmlns:xsi="http://www.w3.org/2001/XMLSchema-instance" xsi:noNamespaceSchemaLocation="http://sumo.dlr.de/xsd/jtrrouterConfiguration.xsd">

    <input>
        <net-file value="4curitiba4.net.xml"/>
        <flow-files value="6curitiba100.flw.xml"/>
    </input>

    <output>
        <output-file value="7curitiba100.rou.xml"/>
    </output>

    <processing>
        <route-steps value="1800"/>
        <remove-loops value="true"/>
        <max-edges-factor value="100"/>
        <turn-defaults value="10,80,10"/>
    </processing>

    <time>
        <begin value="0"/>
        <end value="1800"/>
    </time>

    <report>
        <verbose value="true"/>
    </report>

    <random_number>
        <seed value="1111"/>
    </random_number>

</configuration>
-->

<routes xmlns:xsi="http://www.w3.org/2001/XMLSchema-instance" xsi:noNamespaceSchemaLocation="http://sumo.dlr.de/xsd/routes_file.xsd">
    <vType id="car01" length="4.30" maxSpeed="11.11" speedDev="0.10">
        <carFollowing-Krauss accel="2.80" decel="8.00"/>
    </vType>
    <vehicle id="0.0" type="car01" depart="0.00" color="red">
        <route edges="163603476#5 163603476#6 163603476#7 163603476#8 161392536#3 161392536#4 223783965#3 304610300#3 24576729#0 24576729#1 289829949#0 289829949#1 289829949#2 24576603#7 24576603#8 24576603#9 24576603#10 44867748#0 125542086#0 231095194#2 125542072#1 125542072#2 125542072#3 125542072#4 125542078#0 125542078#1 263505507#0 263505507#1 354612980#0 232922869#1 231094635#0 231094635#1 231100864#2 231101546#0 161884103 231103927#3 231103927#4 231103925#0 231103925#1 231103925#2 231103925#3 231103925#4 161884097 56235458#1 121848065 231103925#6 231103925#7 231103925#8 231103925#9 121846101#1 121846101#2 121846101#3 121848066#0 24553787 195556937#0 195556937#1 195556937#2 195556937#3 195556937#4 195556937#5"/>
    </vehicle>
    <vehicle id="1.0" type="car01" depart="0.00" color="red">
        <route edges="223783965#0 223783965#1 223783965#2 223783965#3 304610300#3 24576729#0 24576729#1 289829949#0 289829949#1 289829949#2 289829949#3 125542069 24576731#0 24576731#1 231094632 -28745211#1 -28745211#0 125542086#4 125542078#0 125542078#1 263505507#0 263505507#1 354612980#0 232922869#1 231094635#0 231094423#3 231094423#4 231094423#5 231094423#6 231094634#0 231094634#1 231094634#2 231094636#1 231100859#2 231103921#0 231103921#1 231103921#2 231101546#0 161884103 231103927#3 231103927#4 231103925#0 231103925#1 161884112 231101546#5 231101546#6 56235458#0 56235458#1 121848065 231103925#6 231103925#7 231103925#8 231103924#1 -129320876 248808903#3 121846101#1 121846101#2 121846101#3 121848066#0 24553787 195556937#0 195556937#1 195556937#2 195556937#3 195556937#4 195556937#5"/>
    </vehicle>
    <vehicle id="10.0" type="car01" depart="0.00" color="red">
        <route edges="24553719#0 24576709#0 24576709#1 45053549 265615038#0 265615038#1 55199745#0 231092457#1 231092457#2 24576648#1 61582401#2 61582401#3 231092960#0 231092960#1 113798873 113798872#0 113798872#1 161885250 55200328#2 55200328#3 55200328#4 55200328#5 55200328#6 55200326#0 55200326#1 231093229#1 231100857#2 231103924#0 231103925#9 248808903#4 248808903#5 248808903#6 248808903#7 127536292#1 56235264#0 56235264#1 231100858#0 231100858#1 231100865#2 231094422 291469316 263505510 165471576#0 164417448#1 164417448#2 164417448#3 164417448#4 164417448#5 70586543#0 29430644#3 29430644#4 56235265#3 56235265#4 53366716#0 53366716#1 53366716#2 53366716#3 53366716#4 55945440#7 24576467#4 245741329#3 263502999#0 263502999#1 163596802#0 163596802#1 163596802#2"/>
    </vehicle>
    <vehicle id="11.0" type="car01" depart="0.00" color="red">
        <route edges="291467468#0 291467468#1 265615038#1 55199745#0 55199745#1 231092960#0 231092960#1 113798873 131490365#1 56235459#0 56235459#1 231094159#1 231094159#2 231094159#3 164801791#4 164801791#5 164801791#6 164801791#7 257599159#3 257599159#4 24775812#0 24574304#4 24574304#5 24574304#6 53366716#0 53366716#1 53366716#2 53366716#3 137443027#0 354709013#3 125539246#2 121846054 263505504#0 263505504#1 125536133#2 125536133#1 125536133#0 29429442 231826759#2 263502993#3 163762005#2 163762005#3 163762005#4 163762005#5 163762005#6 24959937#0 24959937#1 24959937#2 24959937#5 24959937#6 24959937#7 29430031#6 29430031#7 125539248#0 125539248#1 165471580#1 165471580#2 165471580#3 165471580#4 165471580#5 29430888#0 125539245#2 125539245#3 125539241 125539244#0 125539244#1 29429121#0 29429121#1 29430032#3 29430032#4"/>
    </vehicle>
    <vehicle id="12.0" type="car01" depart="0.00" color="red">
        <route edges="121846091 24553779 121848066#0 121848066#1 24553767 333093186#0 333093186#1 231091819 289957317 231091820 127724115 127724111#0 127724111#1 127724111#2 127724111#3 231094162#0 231094162#1 231094161#1 61582401#1 24576648#2 231094159#0 56235459#2 56235459#3 231094156#0 231094156#1 231094156#2 231094156#3 374029401 231094157#1 231094157#2 231094157#3 263502994 45278056#0 45278056#1 245741329#0 173546198 55945440#11 160688847 257599159#3 257599159#4 257599158#0 257599158#1 24576467#0 24576467#1 24576467#2 137443027#1 53366716#4 53366716#5 263502993#0 24959936#2 24959936#3 24775959#0 24775959#1 263505504#0 263505504#1 24959938 24959937#6 24959937#7 24959937#8 165471580#3 165471580#4 165471580#5 29430888#0 29430888#1"/>
    </vehicle>
    <vehicle id="13.0" type="car01" depart="0.00" color="cyan">
        <route edges="354612980#0 232922869#1 231094635#0 231094635#1 231100864#2 231103923#0 231103927#1 161884107 231101546#1 231101546#2 231103929#1 231100865#2 231094422 291469316 263505518#0 263505518#1 263505518#2 263505518#3 24576630#0 24576630#1 164801791#2 164801791#3 164801791#4 164801791#5 38855900#0 38855900#1 38855900#2 231094161#0 231094161#1 61582401#1 61582401#2 61582401#3 231092955#0 231092955#1 231092456 231091821 121846086 372696588#0 372696588#1 127536292#0 127536292#1 231100857#2 231103924#0 231103924#1 231103924#2 231103924#3 43592860 357220475#0 357220475#1 370094378#0 370094378#1 370094378#2 316393925#0 316393925#1 316393925#2 371941800#0 371941800#1 371941802#1 371941802#2 371941802#3"/>
    </vehicle>
    <vehicle id="14.0" type="car01" depart="0.00" color="cyan">
        <route edges="231094633#0 161885249 231094423#4 231094423#5 161885245 231094633#3 289598958#0 289598958#1 161885253 231094634#2 231094636#1 231100859#2 231103931#0 231103928#2 231103928#3 231103927#0 231103927#1 161884107 231101546#1 231101546#2 231103929#1 231100865#2 231094422 291469316 263505510 165471576#0 164417448#1 164417448#2 164417448#3 164417448#4 164417448#5 164417448#6 164801791#5 164801791#6 24574304#3 24574304#4 24574304#5 24574304#6 24574304#7 24574304#8 24574304#9 24574304#10 24574304#11 24576603#0 24576603#1 24576603#2 24576603#3 24576603#4 24576603#5"/>
    </vehicle>
    <vehicle id="15.0" type="car01" depart="0.00" color="cyan">
        <route edges="231101473#0 231100864#2 231101546#0 231101546#1 231101546#2 231103929#1 231100863#0 231100863#1 56235267 56235268#0 56235268#1 56235458#0 56235458#1 121848065 231103925#6 231103925#7 231103925#8 231103925#9 248808903#4 248808903#5 248808903#6 248808903#7 231091475#2 164801791#0 55200329#2 55200329#3 55200327#0 55200327#1 55200327#2 55200327#3 55200327#4 55200327#5 291468708#0 291468708#1 291469317#0 291469317#1 291469317#2 291469317#3 291469317#4 231094633#0 161885249 231094423#4 231094423#5 161885245 231094633#3 289598957 263505507#0 263505507#1 354612980#0 354612980#1 354612980#2 354612980#3 263505510 165471576#0 164417448#1 164417448#2 164417448#3 164417448#4 164417448#5"/>
    </vehicle>
    <vehicle id="16.0" type="car01" depart="0.00" color="cyan">
        <route edges="232923421#2 231103933#0 231103921#2 231101546#0 231101546#1 231101546#2 231103929#1 231100865#2 231094422 291469316 263505510 165471576#0 165471576#1 24574304#11 24959937#14 24959937#15 165471575#2 354612982 163596805 24576603#2 24576603#3 24576603#4 24576603#5 24576603#6 24576603#7 24576603#8 84140639#0 84140639#1 84140639#2 231095197#0 231095197#1 231095197#2 231095197#3 161885248 231095199#2 231095196#1 231101467#2 231101471#0 231101471#1 231101471#2 231100859#2 231103931#0 231103931#1 371941803 -231103930 -231103926"/>
    </vehicle>
    <vehicle id="17.0" type="car01" depart="0.00" color="cyan">
        <route edges="127536292#0 231091475#2 55200326#0 55200326#1 55200326#2 55200326#3 55200326#4 29429867#0 29429867#1 231100858#0 231100858#1 231100865#2 231094422 291469316 263505510 165471576#0 165471576#1 165471576#2 165471576#3 24775894#0 24775894#1 76158194 76158181#0 76158181#1 125539246#0 125539246#1 354709013#2 354709013#1 354709013#0 35595849#1 53333790#0 24576467#2 137443027#1 53366716#4 55945440#7 55945440#8 55945440#9 55945440#10 -173546198 245741329#1 245741329#2 245741329#3 263502993#0 24959936#2 24959936#3 24775959#0 24775959#1 263505504#0 263505504#1 263505504#2 24775963 24775962#0 24775962#1 29429122#5 29429122#4 29429122#3 29429122#2 165471580#4 165471580#5"/>
    </vehicle>
    <vehicle id="18.0" type="car01" depart="0.00" color="cyan">
        <route edges="55200329#0 55200329#1 55200329#2 55200329#3 55200327#0 55200327#1 55200327#2 161885238 55200326#4 29429867#0 29429867#1 231100863#1 56235267 56235268#0 56235268#1 231101545 231103925#4 161884097 56235458#1 121848065 231103925#6 231103925#7 231103925#8 231103924#1 231103924#2 231103924#3 43592860 -186782268#1 -186782268#0 121823814#2 121823814#3 231103924#6 231103924#7 231103924#8 231103924#9 231103924#10 231103924#11 231103924#12 121846080 343540930#3 343540930#4 343540930#5 231107711#0 231107711#1 24554228 370094380 370094381 231103929#0 231103929#1 231100858#2 231100858#3 231100862#0 "/>
    </vehicle>
    <vehicle id="19.0" type="car01" depart="0.00" color="cyan">
        <route edges="231094159#2 24576533#5 24576533#6 24576533#7 55200329#0 55200329#1 164801791#1 164801791#2 29430644#0 29430644#1 29430644#2 29430644#3 29430644#4 56235265#3 56235265#4 24574304#7 24574304#8 24574304#9 84518380 164417448#2 164417448#3 164417448#4 164417448#5 70586543#0 70586543#1 70586543#2 231093229#0 231093229#1 231100863#3 56235269 231092028#0 231092028#1 231092028#2 231092028#3 372920769 333093187 195556937#0 195556937#1 195556937#2 195556937#3 195556937#4 195556937#5"/>
    </vehicle>
    <vehicle id="2.0" type="car01" depart="0.00" color="red">
        <route edges="304610300#0 304610300#2 304610300#3 29430031#0 29430031#1 29429114#1 29429114#2 29429114#3 304610303#2 29429120#1 29429120#2 29430032#4 125539245#0 29430031#3 29430031#4 29429122#2 165471580#4 165471580#5 29430888#0 29430888#1 29430888#2 29429114#0 29430031#2 125539245#1 125539245#2 125539245#3 125539241 125539244#0 125539244#1 29429121#0 29429121#1 29429121#2 29429121#3 304609400#0 304609400#1 358926100#5 55945440#0 29429119#0 29429119#1 29429445#3 29429445#4 29429445#5 29429445#6 231826762#1 231826762#2 55945440#5 24959936#3 24775959#0 24775959#1 263505504#0 263505504#1 125536134#0 125536134#1 125539248#0 125539248#1 165471580#1 165471580#2 24959937#9 24959937#10 24959937#11 24959937#12 24959937#13 24959937#14 29430645 45053541#1 354612982 163596805 24576603#2 24576603#3 24576603#4 24576603#5"/>
    </vehicle>
    <vehicle id="20.0" type="car01" depart="0.00" color="cyan">
        <route edges="24576533#0 24576533#1 24576533#2 24574304#2 164801791#7 257599159#3 257599159#4 24775812#0 24574304#4 24574304#5 24574304#6 53366716#0 53366716#1 53366716#2 53333790#0 24576467#2 137443027#1 53366716#4 55945440#7 24576467#4 245741329#3 263502993#0 263502993#1 263502993#2 263502993#3 263502993#4 263502993#5 263502993#6 263502993#7 263502993#8 263502993#9 -163596794 173546196#1 173546196#0 173546194 27355902#2 27355902#1 27355902#0 55063757#0 55063757#1 55063757#2 55063757#3 24959937#0 24959937#1 24959937#2 341473989 29429122#4 29430032#2 29429121#2 24775962#3 24775962#4 24775962#5 24775962#6 24775962#7 24775962#9 24775962#10 173545697#0"/>
    </vehicle>
    <vehicle id="21.0" type="car01" depart="0.00" color="cyan">
        <route edges="29429120#0 29429120#1 29429120#2 29430032#4 125539245#0 125539245#1 125539245#2 125539245#3 291750963#0 291750963#1 291750963#2 291750963#3 44356660#0 44356660#1 29429114#0 29430031#2 29430031#3 29430031#4 29430031#5 29430031#6 29430031#7 125539248#0 125539248#1 165471580#1 165471580#2 24959937#9 24959937#10 24959937#11 24959937#12 24959937#13 24576603#0 24576603#1 24576603#2 24576603#3 24576603#4 24576603#5 24576603#6 289829949#3 125542069 125542078#0 125542078#1 263505507#0 263505507#1 354612980#0 354612980#1 354612980#2 354612980#3 263505518#0 291468707#1 329377034 56235265#3 164417448#4 164417448#5 70586543#0 70586543#1 70586543#2 231093229#0 55200326#2 55200326#3 55200326#4 29429867#0 29429867#1 231100863#1 231100863#2 231100863#3 56235269 372920770#0 372920771#0 372920771#1 372696589 231091474 289957316#0 289957316#1"/>
    </vehicle>
    <vehicle id="22.0" type="car01" depart="0.00" color="cyan">
        <route edges="163762005#2 163762005#3 163762005#4 163762005#5 163762005#6 24959937#0 29429116#0 29429116#1 29429116#2 29429122#6 24775962#2 29429121#3 304609400#0 29422711#0 29429120#0 29429120#1 29429120#2 29430032#4 29430032#5 29430032#6 171671488#1 171671488#2 24576729#0 24576729#1 289829949#0 289829949#1 289829949#2 289829949#3 125542069 24576731#0 24576731#1 231094636#0 231094636#1 231101471#3 231101473#0 231101473#1 231101473#2 231100863#0 -29429867#1 -29429867#0 56235265#0 56235265#1 56235265#2 56235265#3 164417448#4 164417448#5 164417448#6 164801791#5"/>
    </vehicle>
    <vehicle id="23.0" type="car01" depart="0.00" color="cyan">
        <route edges="175091975#2 121823814#1 186782268#0 186782268#1 357220475#0 339973102 357220477#1 370094379#0 370094379#1 370094379#2 232922863#0 232922863#1 232922863#2 232923421#2 231103933#0 231103933#1 231101475#2 231094631 289598957 263505507#0 263505507#1 354612980#0 354612980#1 354612980#2 354612980#3 263505510 165471576#0 164417448#1 164417448#2 164417448#3 164417448#4 164417448#5 164417448#6 164801791#5 38855900#0 38855900#1 38855900#2 231094156#0 231094156#1 24574304#0 24574304#1 24574304#2 164801791#7 257599159#3 257599159#4 257599158#0 257599158#1 24576467#0 24576467#1 24576467#2 137443027#1 137443027#0 354709013#3 125539246#2 121846054 263505504#0 263505504#1 263505504#2 24775963 24775962#0 24775962#1 24775962#2 24775962#3 24775962#4"/>
    </vehicle>
    <vehicle id="24.0" type="car01" depart="0.00" color="cyan">
        <route edges="248803655#3 121846043#0 121846043#1 248808903#0 248808903#1 248808903#2 248808903#3 121846101#1 121846101#2 121846101#3 121848066#0 121848066#1 24553767 333093186#0 333093186#1 231091819 289957317 231091820 127724115 127724111#0 127724111#1 127724111#2 127724111#3 231094162#0 231094162#1 231094162#2 231094162#3 55200757 231094157#0 231094157#1 231094158#1 231094158#2 265615038#0 291467468#2 291467468#3 291467468#4 231094164 257599159#0 257599159#1 257599159#2 257599159#3 257599159#4 24775812#0 24574304#4 24574304#5 24574304#6 24574304#7 24574304#8 24574304#9 24574304#10 24574304#11 24576603#0 24576603#1 24576603#2"/>
    </vehicle>
    <vehicle id="25.0" type="car01" depart="0.00" color="yellow">
        <route edges="47515622#0 47515622#1 47515622#2 47515622#3 47515622#4 343540930#0 343540930#1 343540930#2 343540930#3 186782267#0 186782267#1 186782268#0 186782268#1 357220475#0 339973102 357220477#1 370094379#0 370094379#1 372077781 370094378#2 316393925#0 316393925#1 371941810 232922863#2 371941799#0 371941799#1 371941803 -231103930 -231103926 -231094853#3 231101471#2 231100859#2 231103921#0 231103921#1 231103933#1 231101475#2 231094631 289598957 263505507#0 263505507#1 354612980#0 232922869#1 231094633#0 231094633#1 231094633#2 231094633#3 289598958#0 289598958#1 289598958#2 231094632 231094852#0 161885239 231094851#1 161885240 231094852#2 231095197#0 231095197#1 231095197#2 231095197#3 231095197#4 231095195#0 231095195#1 231095195#2 231095195#3 231095195#4"/>
    </vehicle>
    <vehicle id="26.0" type="car01" depart="0.00" color="yellow">
        <route edges="231100865#2 231094422 291469316 263505510 165471576#0 164417448#1 164417448#2 164417448#3 164417448#4 164417448#5 164417448#6 164801791#5 164801791#6 24574304#3 24775812#1 70586543#0 70586543#1 70586543#2 231093229#0 231093229#1 231100857#2 231103924#0 231103924#1 231103924#2 231103924#3 231103924#4 231103924#5 231103924#6 231103924#7 343540930#2 343540930#3 186782267#0 186782267#1 186782268#0 186782268#1 357220475#0 339973102 357220477#1 370094381 231103925#0 231103925#1 161884112 231101546#5 161884098 231103925#3 231103925#4 161884097 56235458#1 121848065 231103925#6 231103925#7 231103925#8 231103925#9 121846101#1 121846101#2 121846101#3 121848066#0 24553787 195556937#0 195556937#1 195556937#2 195556937#3 195556937#4 195556937#5"/>
    </vehicle>
    <vehicle id="27.0" type="car01" depart="0.00" color="yellow">
        <route edges="231094635#1 231100864#2 231101546#0 161884103 231103927#3 231103927#4 231103925#0 231103925#1 161884112 231101546#5 161884098 231103925#3 231103925#4 231103925#5 231103925#6 231103925#7 231103925#8 231103924#1 231103924#2 117119226 357220477#0 357220477#1 370094381 231103929#0 231103929#1 231100865#2 231094422 291469316 263505510 165471576#0 165471576#1 165471576#2 165471576#3 24775894#0 24775894#1 76158194 76158181#0 35595849#0 35595849#1 53366716#3 53366716#4 55945440#7 55945440#8 55945440#9 55945440#10 -173546198 245741329#1 245741329#2 24576467#5 355200707#0 355200707#1 355200707#2 355200707#3"/>
    </vehicle>
    <vehicle id="28.0" type="car01" depart="0.00" color="yellow">
        <route edges="-231094853#3 231100860#1 231100861#2 231102761#0 161884110 231102784#3 231103928#0 231103928#1 231103928#2 161884111 231103921#1 231103921#2 231101546#0 161884103 231103927#3 231103927#4 231103925#0 231103925#1 231103925#2 231103925#3 231103925#4 231103925#5 231103925#6 231103925#7 231103925#8 231103925#9 248808903#4 248808903#5 248808903#6 248808903#7 231091475#2 55200326#0 55200326#1 231093229#1 56235264#0 56235264#1 -29429867#1 -29429867#0 163214480 -24552855#2 -24552855#1 231100858#1 231100858#2 231100858#3 231100862#0 231101475#2 231094631 289598957 263505507#0 263505507#1 354612980#0 354612980#1 354612980#2 354612980#3 263505518#0 263505518#1 56235265#2 56235265#3 56235265#4 53366716#0 53366716#1"/>
    </vehicle>
    <vehicle id="29.0" type="car01" depart="0.00" color="yellow">
        <route edges="231095198#1 231100861#2 231102761#0 231102761#2 231103932#0 161884091 231103928#1 231103928#2 161884111 231103921#1 231103921#2 231101546#0 231101546#1 231101546#2 231101546#3 231101546#4 231101546#5 231101546#6 56235458#0 56235458#1 121848065 231103925#6 161884102 56235458#3 56235458#4 231103922 248808903#4 248808903#5 248808903#6 248808903#7 231091475#2 164801791#0 164801791#1 164801791#2 164801791#3 164801791#4 164801791#5 38855900#0 24576533#4 24576533#5 24576533#6 24576533#7 231092958#0 231092958#1 231091479#2 231091479#3 231091479#4 231091479#5 121846101#3 121848066#0 121848066#1 24553767 333093186#0 333093186#1 231091819 289957316#0 231092459#1 252577421#1 252577421#2 252577421#3 61351202 231090367 24576673 131490365#0 131490365#1 56235459#0"/>
    </vehicle>
    <vehicle id="3.0" type="car01" depart="0.00" color="red">
        <route edges="165073646#1 358926100#3 358926100#4 -304609400#1 -304609400#0 125523899 27355902#0 55063757#0 55063757#1 55063757#2 55063757#3 24959937#0 24959937#1 24959937#2 341473989 29429122#4 29430032#2 29429121#2 24775962#3 24775962#4 29429114#3 29429114#4 29429114#5 358926100#4 358926100#5 55945440#0 29429119#0 263502993#6 263502993#7 29429509#0 29429445#1 29429445#2 29429445#3 29429445#4 29429445#5 29429445#6 29429445#7 24959936#1 24959936#2 55945440#6 55945440#7 55945440#8 55945440#9 55945440#10 55945440#11 160688847 257599159#3 257599159#4 24775812#0 24775812#1 70586543#0 70586543#1 70586543#2 55200327#0 55200327#1 55200327#2 161885238 55200326#4 29429867#0 29429867#1 231100863#1 56235267 56235268#0 56235268#1 56235458#0 56235458#1 56235458#2 56235458#3"/>
    </vehicle>
<vehicle id="30.0" type="car01" depart="0.00" color="yellow">
        <route edges="165073646#4 171671488#0 171671488#1 171671488#2 29430031#0 29430031#1 29430031#2 29430031#3 29429121#1 29430032#3 29430032#4 125539245#0 125539245#1 29430888#1 29430888#2 29430888#3 29430888#4 29430888#5 24576729#1 289829949#0 29464177#0 29464177#1 29464177#2 29464177#3 29464177#4 231095194#7 163603476#7 163603476#8 161392536#3 29430888#7 231095194#9 223783965#2 161392536#5 24775962#9 24775962#10 173545697#0 173545697#1 173545697#2 173545697#3 173545697#4 173545697#5 44867748#0 125542086#0 125542086#1 125542086#2 125542086#3 125542086#4"/>
    </vehicle>
    <vehicle id="31.0" type="car01" depart="0.00" color="yellow">
        <route edges="-29429509#1 -29429509#0 263502993#8 263502993#9 -163596794 173546196#1 173546196#0 173546194 27355902#2 27355902#1 27355902#0 29429117 55945440#2 55945440#3 231826759#2 231826759#1 29429445#6 231826762#1 263502993#2 263502993#3 163762005#2 163762005#3 163762005#4 163762005#5 163762005#6 24959937#0 24959937#1 24959937#2 341473989 29429122#4 29429122#3 29429122#2 165471580#4 165471580#5 29430888#0 29430888#1 29430888#2 29429114#0 29429114#1 29430032#6 171671488#1 171671488#2 29430031#0 29430031#1 29430031#2 29430031#3 29430031#4 29430031#5 24959937#8 24959937#9 24959937#10 24959937#11 24959937#12 24959937#13 24576603#0 45053541#0 45053541#1 354612983 232922869#0 354612980#1 24959937#17 291469317#4 231094633#0 161885249 231094423#4 231094423#5 161885245 231094633#3 289598958#0 289598958#1 161885253 231094634#2 231094634#3"/>
    </vehicle>
    <vehicle id="32.0" type="car01" depart="0.00" color="yellow">
        <route edges="343738679 24553719#1 24553719#2 291467468#1 265615038#1 55199745#0 55199745#1 231092960#0 231092960#1 127724111#0 127724111#1 127724111#2 127724111#3 231094162#0 231094162#1 231094162#2 257603164 231094156#1 24574304#0 24574304#1 24576533#3 24576533#4 24576533#5 24576533#6 24576533#7 231092958#0 55200328#3 55200328#4 55200328#5 161885244 55200329#1 55200329#2 55200329#3 55200327#0 55200327#1 55200327#2 161885238 55200326#4 163214480 231094424#0 231094424#1 231094423#0 231094423#1 231094423#2 231094635#1 231100864#2 231103923#0 231103927#1 231103927#2 231103927#3 231103927#4 231103925#0 231103925#1 231103925#2 231103925#3 231103925#4 161884097 56235458#1 121848065 231103925#6 231103925#7 231103925#8 231103924#1 231103924#2 231103924#3 231103924#4 231103924#5 231103924#6"/>
    </vehicle>
    <vehicle id="33.0" type="car01" depart="0.00" color="yellow">
        <route edges="364384855 55200330#0 55200330#1 55200330#2 55200331 55200328#0 55200328#1 55200328#2 55200328#3 55200328#4 55200328#5 161885244 55200329#1 55200329#2 55200329#3 55200327#0 55200327#1 55200327#2 161885238 55200326#4 29429867#0 29429867#1 231100863#1 231100863#2 231100857#2 231103922 248808903#4 248808903#5 248808903#6 248808903#7 127536292#1 56235264#0 56235264#1 231100858#0 231100858#1 231100858#2 231100858#3 231100864#2 231101546#0 161884103 231103927#3 231103927#4 231103925#0 231103925#1 231103925#2 231103925#3 -357220478 357220477#0 357220477#1 370094379#0 370094379#1 370094379#2 232922863#0 232922863#1 232922863#2 371941799#0 371942746 371941800#1 371941802#1 371941802#2 371941802#3"/>
    </vehicle>
    <vehicle id="34.0" type="car01" depart="0.00" color="yellow">
        <route edges="-43548864 47515622#4 343540930#0 343540930#1 231103924#8 231103924#9 231103924#10 231103924#11 231103924#12 121846080 343540930#3 343540930#4 343540930#5 231107711#0 231107711#1 121823814#0 121823814#1 121823814#2 121823814#3 121823814#4 121823815#5 248808903#0 248808903#1 248808903#2 248808903#3 248808903#4 248808903#5 248808903#6 248808903#7 231091475#2 164801791#0 55200329#2 161885242 55200326#1 231093229#1 56235264#0 56235264#1 231100858#0 231100858#1 231100865#2 231094422 291469316 263505510 165471576#0"/>
    </vehicle>
    <vehicle id="35.0" type="car01" depart="0.00" color="yellow">
        <route edges="343738671#1 343738671#2 343738671#3 231102784#0 231102784#1 160218579 231102761#2 -231094853#3 231101471#2 231101471#3 231101473#0 231101473#1 231101473#2 231100865#2 231094422 291469316 263505510 165471576#0 164417448#1 164417448#2 164417448#3 56235265#4 24574304#7 24574304#8 24574304#9 24574304#10 165471576#2 165471576#3 24775894#0 24775894#1 76158194 76158181#0 35595849#0 35595849#1 53366716#3 137443027#0 354709013#3 125539246#2 121846054 263505504#0 263505504#1 263505504#2 24775963 24775962#0 24775962#1 24775962#2 29429121#3 125523899 27355902#0 29429117 29429505#2 263502993#5 263502993#6 29429507#2 29429507#3"/>
    </vehicle>
    <vehicle id="36.0" type="car01" depart="0.00" color="yellow">
        <route edges="231101467#0 231101467#1 231101466#2 231102798#0 231102798#1 231102798#2 231102761#0 231102761#2 231103932#0 231103932#1 231103921#0 231103921#1 231103933#1 231101473#0 231100864#2 231101546#0 161884103 231103927#3 231103927#4 231103925#0 231103925#1 161884112 231101546#5 231101546#6 56235458#0 56235458#1 121848065 231103925#6 161884102 56235458#3 56235458#4 231103922 248808903#4 248808903#5 248808903#6 248808903#7 231091475#2 164801791#0 55200329#2 55200329#3 55200327#0 55200327#1 55200327#2 55200327#3 56235265#1 56235265#2 56235265#3 56235265#4 24574304#7 24574304#8 24574304#9"/>
    </vehicle>
    <vehicle id="37.0" type="car01" depart="0.00" color="yellow">
        <route edges="24576628 125542086#0 125542086#1 125542086#2 125542086#3 125542086#4 24576731#0 24576731#1 231094636#0 231094634#3 231094853#0 231094853#3 231103932#0 161884091 231103928#1 231103928#2 161884111 231103921#1 231103933#1 231101475#2 231094631 289598957 263505507#0 263505507#1 354612980#0 232922869#1 231094635#0 231094635#1 231101473#1 231101473#2 231100865#2 231094422 291469316 263505518#0 263505518#1 56235265#2 56235265#3 164417448#4 164417448#5 164417448#6 164801791#5 164801791#6 164801791#7 257599159#3"/>
    </vehicle>
    <vehicle id="38.0" type="car01" depart="0.00" color="cyan">
        <route edges="56235268#0 56235268#1 231101545 231103925#4 161884097 56235458#1 56235458#2 56235458#3 56235458#4 231103922 248808903#4 248808903#5 248808903#6 248808903#7 231091475#2 55200326#0 55200326#1 231093229#1 231100863#3 56235269 231092028#0 231091479#3 231091479#4 231091479#5 121846101#3 121848066#0 121848066#1 24553767 333093186#0 333093186#1 231091819 289957317 231091820 127724115 127724111#0 127724111#1 127724111#2 231094153#1 231094153#2 231092457#2 231092457#3 231092457#4 291467468#3 291467468#4 231094164 231094156#3 231094156#4 24576535 231094154 357944829#0 357944829#1"/>
    </vehicle>
    <vehicle id="39.0" type="car01" depart="0.00" color="cyan">
        <route edges="304610303#0 304610303#1 304610303#2 29429120#1 29429120#2 29430032#4 125539245#0 125539245#1 125539245#2 125539245#3 125539241 125539244#0 125539244#1 29429121#0 29430031#4 29430031#5 24959937#8 24959937#9 24959937#10 24959937#11 24959937#12 24959937#13 24959937#14 24959937#15 24959937#16 354612980#2 354612980#3 263505518#0 263505518#1 56235265#2 56235265#3 56235265#4 53366716#0 53366716#1 53366716#2 53333790#0 24576467#2 137443027#1 53366716#4 55945440#7 55945440#8 55945440#9 55945440#10 55945440#11 160688847 257599159#3 257599159#4 24775812#0 24775812#1 70586543#0 70586543#1 70586543#2"/>
    </vehicle>
    <vehicle id="4.0" type="car01" depart="0.00" color="red">
        <route edges="29429507#0 29429507#1 263502993#7 263502993#8 263502993#9 -163596794 173546196#1 173546196#0 173546194 27355902#2 27355902#1 27355902#0 29429117 55945440#2 55945440#3 231826759#2 263502993#3 163762005#2 163762005#3 163762005#4 163762005#5 163762005#6 24959937#0 24959937#1 24959937#2 24959937#5 24959937#6 24959937#7 24959937#8 165471580#3 29429122#1 29429122#0 115026667#0 115026667#1 125539244#0 125539244#1 29430888#0 29430888#1 29430888#2 29430888#3 29430888#4 29430888#5 24576729#1 289829949#0 289829949#1 289829949#2 24576603#7 24576603#8 84140639#0 84140639#1 125542086#2 125542086#3 125542086#4 24576731#0 24576731#1 231094632 231094852#0 161885239 231094851#1 161885240 231094852#2 231095197#0 231095197#1 231095197#2 231095197#3 161885248 231095199#2 231095199#3 231095199#4 161885234 231101479#0 231101479#1"/>
    </vehicle>
    <vehicle id="40.0" type="car01" depart="0.00" color="cyan">
        <route edges="-137441186 164417448#2 164417448#3 56235265#4 24574304#7 24574304#8 24574304#9 24574304#10 165471576#2 165471576#3 125539250#1 125539250#2 165471580#0 165471580#1 165471580#2 165471580#3 165471580#4 165471580#5 29430888#0 29430888#1 29430888#2 29430888#3 29430888#4 29430888#5 24576729#1 289829949#0 289829949#1 289829949#2 289829949#3 125542069 24576731#0 24576731#1 231094636#0 231094634#3 231094853#0 231094853#3 231103926 231103928#0 231103928#1 231103928#2 231103928#3 231103927#0 231103927#1 161884107 231101546#1 231101546#2 231103929#1 231100865#2 231094422 291469316 263505518#0 291468707#1 44369040#0 44369040#1 165471575#0 165471575#1 24959937#16 24959937#17 291469317#4 231094633#0 161885249 231094423#4 231094423#5 231094423#6 231094634#0 231094634#1 231094634#2 231094634#3 231094851#0 231094851#1 161885240 231094852#2"/>
    </vehicle>
    <vehicle id="41.0" type="car01" depart="0.00" color="cyan">