<?xml version="1.0" encoding="UTF-8"?>

<!-- generated on Tue Oct  6 19:07:50 2015 by SUMO jtrrouter Version 0.22.0
<?xml version="1.0" encoding="UTF-8"?>

<configuration xmlns:xsi="http://www.w3.org/2001/XMLSchema-instance" xsi:noNamespaceSchemaLocation="http://sumo.dlr.de/xsd/jtrrouterConfiguration.xsd">

    <input>
        <net-file value="4curitiba4.net.xml"/>
        <flow-files value="6curitiba25.flw.xml"/>
    </input>

    <output>
        <output-file value="7curitiba25.rou.xml"/>
    </output>

    <processing>
        <route-steps value="1800"/>
        <remove-loops value="true"/>
        <max-edges-factor value="100"/>
        <turn-defaults value="10,80,10"/>
    </processing>

    <time>
        <begin value="0"/>
        <end value="1800"/>
    </time>

    <report>
        <verbose value="true"/>
    </report>

    <random_number>
        <seed value="8456"/>
    </random_number>

</configuration>
-->

<routes xmlns:xsi="http://www.w3.org/2001/XMLSchema-instance" xsi:noNamespaceSchemaLocation="http://sumo.dlr.de/xsd/routes_file.xsd">
    <vType id="car01" length="4.30" maxSpeed="11.11" speedDev="0.10">
        <carFollowing-Krauss accel="2.80" decel="8.00"/>
    </vType>
    <vehicle id="0.0" type="car01" depart="0.00" color="green">
        <route edges="163603476#5 163603476#6 163603476#7 163603476#8 161392536#3 161392536#4 223783965#3 304610300#3 24576729#0 24576729#1 289829949#0 289829949#1 289829949#2 24576603#7 24576603#8 24576603#9 24576603#10 44867748#0 125542086#0 231095194#2 125542072#1 125542072#2 125542072#3 125542072#4 125542078#0 125542078#1 263505507#0 263505507#1 354612980#0 232922869#1 231094635#0 231094635#1 231100864#2 231101546#0 161884103 231103927#3 231103927#4 231103925#0 231103925#1 231103925#2 231103925#3 231103925#4 161884097 56235458#1 121848065 231103925#6 231103925#7 231103925#8 231103925#9 121846101#1 121846101#2 121846101#3 121848066#0 24553787 195556937#0 195556937#1 195556937#2 195556937#3 195556937#4 195556937#5"/>
    </vehicle>
    <vehicle id="1.0" type="car01" depart="0.00" color="green">
        <route edges="223783965#0 223783965#1 223783965#2 223783965#3 304610300#3 24576729#0 24576729#1 289829949#0 289829949#1 289829949#2 289829949#3 125542069 24576731#0 24576731#1 231094632 -28745211#1 -28745211#0 125542086#4 125542078#0 125542078#1 263505507#0 263505507#1 354612980#0 232922869#1 231094635#0 231094423#3 231094423#4 231094423#5 231094423#6 231094634#0 231094634#1 231094634#2 231094636#1 231100859#2 231103921#0 231103921#1 231103921#2 231101546#0 161884103 231103927#3 231103927#4 231103925#0 231103925#1 161884112 231101546#5 231101546#6 56235458#0 56235458#1 121848065 231103925#6 231103925#7 231103925#8 231103924#1 -129320876 248808903#3 121846101#1 121846101#2 121846101#3 121848066#0 24553787 195556937#0 195556937#1 195556937#2 195556937#3 195556937#4 195556937#5"/>
    </vehicle>
    <vehicle id="2.0" type="car01" depart="0.00" color="green">
        <route edges="304610300#0 304610300#2 304610300#3 29430031#0 29430031#1 29429114#1 29429114#2 29429114#3 304610303#2 29429120#1 29429120#2 29430032#4 125539245#0 29430031#3 29430031#4 29429122#2 165471580#4 165471580#5 29430888#0 29430888#1 29430888#2 29429114#0 29430031#2 125539245#1 125539245#2 125539245#3 125539241 125539244#0 125539244#1 29429121#0 29429121#1 29429121#2 29429121#3 304609400#0 304609400#1 358926100#5 55945440#0 29429119#0 29429119#1 29429445#3 29429445#4 29429445#5 29429445#6 231826762#1 231826762#2 55945440#5 24959936#3 24775959#0 24775959#1 263505504#0 263505504#1 125536134#0 125536134#1 125539248#0 125539248#1 165471580#1 165471580#2 24959937#9 24959937#10 24959937#11 24959937#12 24959937#13 24959937#14 29430645 45053541#1 354612982 163596805 24576603#2 24576603#3 24576603#4 24576603#5"/>
    </vehicle>
    <vehicle id="3.0" type="car01" depart="0.00" color="green">
        <route edges="165073646#1 358926100#3 358926100#4 -304609400#1 -304609400#0 125523899 27355902#0 55063757#0 55063757#1 55063757#2 55063757#3 24959937#0 24959937#1 24959937#2 341473989 29429122#4 29430032#2 29429121#2 24775962#3 24775962#4 29429114#3 29429114#4 29429114#5 358926100#4 358926100#5 55945440#0 29429119#0 263502993#6 263502993#7 29429509#0 29429445#1 29429445#2 29429445#3 29429445#4 29429445#5 29429445#6 29429445#7 24959936#1 24959936#2 55945440#6 55945440#7 55945440#8 55945440#9 55945440#10 55945440#11 160688847 257599159#3 257599159#4 24775812#0 24775812#1 70586543#0 70586543#1 70586543#2 55200327#0 55200327#1 55200327#2 161885238 55200326#4 29429867#0 29429867#1 231100863#1 56235267 56235268#0 56235268#1 56235458#0 56235458#1 56235458#2 56235458#3"/>
    </vehicle>
    <vehicle id="4.0" type="car01" depart="0.00" color="green">
        <route edges="29429507#0 29429507#1 263502993#7 263502993#8 263502993#9 -163596794 173546196#1 173546196#0 173546194 27355902#2 27355902#1 27355902#0 29429117 55945440#2 55945440#3 231826759#2 263502993#3 163762005#2 163762005#3 163762005#4 163762005#5 163762005#6 24959937#0 24959937#1 24959937#2 24959937#5 24959937#6 24959937#7 24959937#8 165471580#3 29429122#1 29429122#0 115026667#0 115026667#1 125539244#0 125539244#1 29430888#0 29430888#1 29430888#2 29430888#3 29430888#4 29430888#5 24576729#1 289829949#0 289829949#1 289829949#2 24576603#7 24576603#8 84140639#0 84140639#1 125542086#2 125542086#3 125542086#4 24576731#0 24576731#1 231094632 231094852#0 161885239 231094851#1 161885240 231094852#2 231095197#0 231095197#1 231095197#2 231095197#3 161885248 231095199#2 231095199#3 231095199#4 161885234 231101479#0 231101479#1"/>
    </vehicle>
    <vehicle id="5.0" type="car01" depart="0.00" color="green">
        <route edges="163762005#0 29429445#5 29429445#6 231826762#1 231826762#2 55945440#5 24959936#3 24775959#0 24775959#1 263505504#0 263505504#1 263505504#2 24775963 24775962#0 24775962#1 24775962#2 24775962#3 29429120#2 29430032#4 29430032#5 29429114#2 24775962#5 171671488#0 171671488#1 171671488#2 24576729#0 24576729#1 289829949#0 289829949#1 289829949#2 24576603#7 24576603#8 84140639#0 84140639#1 125542086#2 125542086#3 125542086#4 24576731#0 24576731#1 231094636#0 231094634#3 231094851#0 231094851#1 231094851#2 231095198#1 231100861#2 231102761#0 231102761#2 231103932#0 231103932#1 231103921#0 231103921#1 231103921#2 231101546#0 161884103 231103927#3 231103927#4 231103925#0 231103925#1 231103925#2 231103925#3 231103925#4 161884097 56235458#1 121848065 231103925#6 161884102 56235458#3 56235458#4 231103922 248808903#4 248808903#5 248808903#6"/>
    </vehicle>
    <vehicle id="6.0" type="car01" depart="0.00" color="green">
        <route edges="231826762#0 231826762#1 231826762#2 55945440#5 24959936#3 24775959#0 24775959#1 263505504#0 263505504#1 24959938 24959937#6 29430032#0 29430032#1 29429122#3 29429122#2 29429122#1 29429122#0 115026667#0 115026667#1 125539244#0 125539244#1 29430888#0 29430888#1 29430888#2 29430888#3 29430888#4 29430888#5 24576729#1 289829949#0 29464177#0 29464177#1 29464177#2 29464177#3 29464177#4 29464177#5 173545697#4 173545697#5 44867748#0 44867748#1 231095196#0 231095196#1 231101466#2 231102798#0 231102798#1 231102798#2 231102761#0 231102761#2 231103932#0 231103932#1 231103921#0 231103921#1 231103921#2 231101546#0 231101546#1 231101546#2 231101546#3 231101546#4 231101546#5 231101546#6 56235458#0 56235458#1 56235458#2 56235458#3 56235458#4 231103922 248808903#4 248808903#5 "/>
    </vehicle>
    <vehicle id="7.0" type="car01" depart="0.00" color="green">
        <route edges="24959936#0 24959936#1 263502993#1 231826762#2 55945440#5 24959936#3 24775959#0 24775959#1 263505504#0 263505504#1 263505504#2 24775963 24775962#0 24775962#1 24775962#2 24775962#3 24775962#4 24775962#5 24775962#6 24775962#7 24775962#9 24775962#10 173545697#0 223783965#1 223783965#2 223783965#3 304610300#3 24576729#0 24576729#1 289829949#0 289829949#1 289829949#2 24576603#7 24576603#8 84140639#0 84140639#1 84140639#2 231095197#0 231095197#1 231095197#2 231095197#3 161885248 231095199#2 231095196#1 231101466#2 231102798#0 231102798#1 231102798#2 231102761#0 231102761#2 231103932#0"/>
    </vehicle>
    <vehicle id="8.0" type="car01" depart="0.00" color="green">
        <route edges="355202084#2 355202270 24576541#1 24576533#0 24576533#1 257599159#2 257599159#3 257599159#4 24775812#0 24574304#4 24574304#5 24574304#6 24574304#7 24574304#8 24574304#9 24574304#10 24574304#11 24576603#0 24576603#1 24576603#2 24576603#3 24576603#4 24576603#5 24576603#6 289829949#3 125542069 24576731#0 24576731#1 231094636#0 231094636#1 231100859#2 231103921#0 231103921#1 231103933#1 231100862#1 231100862#2 231100860#0 231100860#1 231100866#0 231100866#1 231101466#2 231102798#0 231102798#1 231102798#2 231102761#0 161884110 231102784#3 231103930"/>
    </vehicle>
    <vehicle id="9.0" type="car01" depart="0.00" color="green">
        <route edges="32944363#2 24576709#2 24576709#3 263502994 24576541#1 24576533#0 24576533#1 24576533#2 24576533#3 24576533#4 24576533#5 71443365#2 29430644#0 29430644#1 29430644#2 29430644#3 29430644#4 56235265#3 164417448#4 164417448#5 70586543#0 70586543#1 70586543#2 55200327#0 55200327#1 55200327#2 55200327#3 55200327#4 55200327#5 291468708#0 291468708#1 291469317#0 291469317#1 161885254 231094423#2 231094635#1 231100864#2 231103923#0 231103923#1 232922863#0 232922863#1 232922863#2 232923421#2 231103927#0 231103927#1 231103927#2 231103927#3 231103927#4 231103925#0 231103925#1 231103925#2 231103925#3 231103925#4 231103925#5 231103925#6 231103925#7"/>
    </vehicle>
</routes>
