<?xml version="1.0" encoding="UTF-8"?>

<!-- generated on Tue May  5 13:13:22 2015 by SUMO jtrrouter Version 0.22.0
<?xml version="1.0" encoding="UTF-8"?>

<configuration xmlns:xsi="http://www.w3.org/2001/XMLSchema-instance" xsi:noNamespaceSchemaLocation="http://sumo.dlr.de/xsd/jtrrouterConfiguration.xsd">

    <input>
        <net-file value="manhh.net.xml"/>
        <flow-files value="flow1.flw.xml"/>
    </input>

    <output>
        <output-file value="manhh1.rou.xml"/>
    </output>

    <processing>
        <turn-defaults value="25,50,25"/>
    </processing>

    <time>
        <begin value="0"/>
        <end value="600"/>
    </time>

    <report>
        <verbose value="true"/>
    </report>

</configuration>
-->

<routes xmlns:xsi="http://www.w3.org/2001/XMLSchema-instance" xsi:noNamespaceSchemaLocation="http://sumo.dlr.de/xsd/routes_file.xsd">
    <vehicle id="0.0" depart="0.00">
        <route edges="R1-2 R2-3 R3-4 D4-8 L8-7 L7-6 U6-2 L2-1 D1-5 R5-6 R6-7 D7-11 D11-15 L15-14 U14-10 U10-6 L6-5 U5-1"/>
    </vehicle>
    <vehicle id="1.0" depart="0.00" color="blue">
        <route edges="L4-3 D3-7 D7-11 D11-15 R15-16 U16-12 U12-8 U8-4 L4-3 L3-2 L2-1 D1-5 R5-6 R6-7 R7-8"/>
    </vehicle>
    <vehicle id="2.0" depart="0.00" color="red">
        <route edges="R13-14 R14-15 R15-16 U16-12 L12-11 L11-10 D10-14 L14-13 U13-9 U9-5 R5-6 U6-2 R2-3 D3-7 L7-6 L6-5 U5-1 R1-2 D2-6 D6-10 R10-11 D11-15 L15-14 U14-10 L10-9 D9-13"/>
    </vehicle>
    <vehicle id="3.0" depart="0.00" color="green">
        <route edges="L16-15 U15-11 R11-12 U12-8 U8-4 L4-3 L3-2 L2-1 D1-5 R5-6 R6-7 R7-8 D8-12 D12-16"/>
    </vehicle>
    <vehicle id="0.1" depart="1.00">
        <route edges="R1-2 R2-3 D3-7 D7-11 L11-10 L10-9 U9-5 R5-6 R6-7 U7-3 R3-4 D4-8 L8-7 D7-11 R11-12 D12-16"/>
    </vehicle>
    <vehicle id="1.1" depart="1.00" color="blue">
        <route edges="L4-3 D3-7 L7-6 L6-5 U5-1 R1-2 R2-3 R3-4 D4-8 L8-7 D7-11 D11-15 R15-16 U16-12 L12-11 U11-7 U7-3 L3-2 D2-6 D6-10 D10-14 R14-15 U15-11 R11-12 U12-8 U8-4"/>
    </vehicle>
    <vehicle id="2.1" depart="1.00" color="red">
        <route edges="R13-14 R14-15 R15-16 U16-12 U12-8 L8-7 L7-6 L6-5 U5-1 R1-2 R2-3 R3-4 D4-8"/>
    </vehicle>
    <vehicle id="3.1" depart="1.00" color="green">
        <route edges="L16-15 L15-14 U14-10 U10-6 U6-2 L2-1 D1-5 D5-9 D9-13 R13-14 R14-15 R15-16 U16-12 L12-11 L11-10 L10-9 U9-5 U5-1"/>
    </vehicle>
    <vehicle id="0.2" depart="2.00">
        <route edges="R1-2 R2-3 R3-4 D4-8 L8-7 L7-6 U6-2 L2-1 D1-5 R5-6 D6-10 R10-11 D11-15 R15-16 U16-12 U12-8 U8-4 L4-3 D3-7 D7-11 L11-10 U10-6 L6-5 U5-1"/>
    </vehicle>
    <vehicle id="1.2" depart="2.00" color="blue">
        <route edges="L4-3 D3-7 D7-11 L11-10 D10-14 L14-13 U13-9 R9-10 R10-11 U11-7 R7-8 D8-12 L12-11 D11-15 R15-16"/>
    </vehicle>
    <vehicle id="2.2" depart="2.00" color="red">
        <route edges="R13-14 R14-15 R15-16 U16-12 U12-8 L8-7 L7-6 D6-10 D10-14 L14-13 U13-9 R9-10 U10-6 U6-2 L2-1 D1-5 D5-9 D9-13"/>
    </vehicle>
    <vehicle id="3.2" depart="2.00" color="green">
        <route edges="L16-15 U15-11 U11-7 L7-6 D6-10 D10-14 R14-15 R15-16 U16-12 U12-8 U8-4 L4-3 D3-7 R7-8 D8-12 D12-16"/>
    </vehicle>
    <vehicle id="0.3" depart="3.00">
        <route edges="R1-2 R2-3 D3-7 D7-11 D11-15 R15-16 U16-12 L12-11 L11-10 L10-9 U9-5 U5-1 R1-2 D2-6 D6-10"/>
    </vehicle>
    <vehicle id="1.3" depart="3.00" color="blue">
        <route edges="L4-3 D3-7 D7-11 D11-15 L15-14 L14-13 U13-9 R9-10 R10-11 R11-12 U12-8 U8-4 L4-3 D3-7 L7-6"/>
    </vehicle>
    <vehicle id="2.3" depart="3.00" color="red">
        <route edges="R13-14 U14-10 R10-11 R11-12 U12-8 L8-7 L7-6 U6-2 L2-1 D1-5 D5-9 R9-10 D10-14 R14-15 R15-16 U16-12 L12-11 D11-15 L15-14 L14-13 U13-9 U9-5 R5-6 D6-10 L10-9 D9-13"/>
    </vehicle>
    <vehicle id="3.3" depart="3.00" color="green">
        <route edges="L16-15 U15-11 L11-10 L10-9 U9-5 R5-6 U6-2 L2-1 D1-5 D5-9 D9-13 R13-14 U14-10 U10-6 L6-5 U5-1"/>
    </vehicle>
    <vehicle id="0.4" depart="4.00">
        <route edges="R1-2 D2-6 R6-7 D7-11 D11-15 L15-14 U14-10 U10-6 U6-2 L2-1 D1-5 D5-9 R9-10 D10-14 L14-13 U13-9 U9-5 R5-6 D6-10 L10-9 D9-13 R13-14 R14-15 R15-16 U16-12 L12-11 L11-10"/>
    </vehicle>
    <vehicle id="1.4" depart="4.00" color="blue">
        <route edges="L4-3 D3-7 D7-11 R11-12 U12-8 L8-7 U7-3 L3-2 D2-6 D6-10 R10-11 D11-15 L15-14 L14-13 U13-9 R9-10 D10-14 R14-15 U15-11 U11-7 R7-8 U8-4"/>
    </vehicle>
    <vehicle id="2.4" depart="4.00" color="red">
        <route edges="R13-14 U14-10 L10-9 U9-5 U5-1 R1-2 D2-6 D6-10 R10-11 U11-7 U7-3 R3-4 D4-8 D8-12 D12-16 L16-15"/>
    </vehicle>
    <vehicle id="3.4" depart="4.00" color="green">
        <route edges="L16-15 U15-11 L11-10 D10-14 L14-13 U13-9 U9-5 R5-6 D6-10 R10-11 U11-7 R7-8 D8-12 L12-11 D11-15 L15-14 U14-10 L10-9 D9-13 R13-14 R14-15 R15-16 U16-12 U12-8 U8-4 L4-3 L3-2 D2-6 L6-5 U5-1"/>
    </vehicle>
</routes>
